64
H2CS+ASW1_dH4
O         -0.23440        2.04441        3.11871
H         -1.09298        1.75229        2.77485
H          0.23312        1.20242        3.27885
O         -4.43775        1.07707       -0.00246
H         -5.35011        1.15424        0.28020
H         -4.34802        0.17419       -0.40523
O          1.53236        3.47424       -2.40299
H          0.67999        3.65265       -1.95502
H          1.66300        4.17811       -3.03917
O         -1.62298       -1.85797        1.96132
H         -0.99539       -2.08127        1.24409
H         -2.35877       -2.48098        1.85488
O         -3.30330        3.43718       -0.96234
H         -3.68015        2.58950       -0.66164
H         -3.79994        3.68808       -1.74091
O          2.42195       -1.66790        1.52439
H          2.53099       -0.79793        1.08333
H          3.28933       -2.09236        1.48854
O          0.62088        4.06109        1.67431
H          0.35215        3.27881        2.23271
H          0.65767        4.80993        2.27068
O         -2.25481        0.75661        1.71248
H         -3.11144        0.89774        1.27898
H         -2.15249       -0.20836        1.85775
O         -4.19257       -1.39189       -0.91314
H         -4.11041       -2.09188       -0.24431
H         -3.57821       -1.63897       -1.62427
O          0.55985       -0.60616        3.41103
H          1.28808       -1.03982        2.94300
H         -0.22355       -1.12825        3.19348
O          2.86126        3.22975        0.15659
H          2.58266        3.44546       -0.74499
H          2.18077        3.61356        0.73407
O         -0.13156       -0.80948       -2.10686
H         -0.38285       -0.09711       -1.47941
H          0.63655       -0.42178       -2.57435
O          0.25699       -2.53777        0.04999
H          0.28336       -1.96209       -0.73635
H          1.09017       -2.38835        0.53751
O         -0.37551        1.06857       -0.21625
H         -1.03106        0.95803        0.50651
H         -0.43404        2.00689       -0.47960
O          2.08435        0.65688       -2.74378
H          1.88448        1.59790       -2.85667
H          2.35161        0.60025       -1.81092
O         -1.73410       -4.27892       -0.84651
H         -1.90833       -3.74645       -1.63859
H         -0.89922       -3.92343       -0.49931
O         -0.59710        3.75292       -0.75999
H         -1.57235        3.77912       -0.81585
H         -0.31654        4.05370        0.12553
O         -3.60044       -3.51873        0.86705
H         -4.18508       -4.20637        1.18641
H         -2.94996       -3.94393        0.25187
O          2.30961        0.58863        0.07297
H          2.66917        1.48875        0.23616
H          1.33932        0.72054        0.10066
O         -2.25585       -2.25484       -2.77880
H         -1.45319       -1.69064       -2.67710
H         -2.41808       -2.34811       -3.71795
C          4.79093       -1.58489       -0.99225
H          5.32949       -1.44258       -1.92809
H          3.86619       -1.02008       -0.87714
S          5.34022       -2.57322        0.15467
