64
H2CO+ASW6_dH4
O         -0.59537        2.80037        0.68758
H         -0.63286        2.11970        1.38547
H         -1.33687        2.59850        0.09708
O          5.38516       -1.48071        1.35755
H          4.65587       -1.02663        1.81597
H          5.71213       -0.82859        0.71728
O         -0.70898       -1.15143        0.33455
H         -0.68634       -0.56237       -0.44266
H          0.17371       -1.57323        0.32957
O          1.22438        0.32742        4.02969
H          1.05458       -0.22933        4.78895
H          0.36100        0.47906        3.59691
O          4.19728       -3.30091       -0.14157
H          4.44367       -4.20809        0.03853
H          4.70664       -2.72240        0.48443
O          1.72679        3.51945       -0.28098
H          1.85398        4.45159       -0.10118
H          0.85600        3.26569        0.13032
O          2.15075       -0.60820       -2.49165
H          3.05882       -0.95440       -2.63704
H          2.21394        0.35655       -2.52898
O          3.01353       -0.18845        2.01941
H          2.50131       -0.71128        1.37552
H          2.43920       -0.03657        2.79588
O         -0.94732        0.63982        2.42624
H         -0.84092       -0.06163        1.75440
H         -1.91625        0.73779        2.50654
O          3.94544        1.88251        0.48853
H          3.21497        2.45541        0.21452
H          3.56887        1.24839        1.12930
O         -5.17922       -0.93029        0.52510
H         -4.46763       -1.58320        0.35563
H         -6.02051       -1.40774        0.54355
O          4.67287       -1.57947       -2.38444
H          5.15081       -0.88948       -1.89535
H          4.59886       -2.31778       -1.76144
O         -3.56384        1.01121        1.80425
H         -4.20875        0.30193        1.67580
H         -3.25437        1.21482        0.90813
O         -3.05006       -2.56337        0.16582
H         -2.93179       -3.23213       -0.50804
H         -2.18655       -2.11222        0.25997
O         -0.53375        0.23887       -2.08549
H          0.03980        1.02206       -2.17227
H         -0.02181       -0.44626       -2.53279
O          5.78542        0.42004       -0.72297
H          5.10141        1.05029       -0.38498
H          6.58452        0.92895       -0.86133
O          1.45097        2.13574       -2.55870
H          1.42829        2.65770       -3.36122
H          1.62886        2.75182       -1.81579
O         -2.65208        1.61476       -0.88096
H         -3.57489        1.61883       -1.19113
H         -2.15675        1.01285       -1.45422
O          1.90511       -1.74681       -0.00748
H          2.55098       -2.47459       -0.03741
H          1.99631       -1.28538       -0.86940
O         -5.39911        1.27101       -1.07273
H         -5.32739        0.46816       -0.51450
H         -5.77267        1.94365       -0.50048
O         -7.80367       -1.77995       -0.14696
C         -8.06220       -1.11351       -1.11609
H         -9.02782       -1.22487       -1.64060
H         -7.35149       -0.36738       -1.51466
