64
H2CO+ASW6_dH6
O         -0.95761       -2.04105        2.26277
H         -0.86843       -2.33436        1.33502
H         -1.84502       -1.66184        2.31939
O          5.36447       -0.77370       -1.38149
H          4.59703       -1.33985       -1.18111
H          5.61176       -0.39630       -0.52235
O         -0.82060       -0.07777       -1.44747
H         -0.93940        0.44229       -0.63055
H          0.08421        0.13461       -1.75541
O          1.28150       -3.96247       -1.13845
H          1.21083       -4.41439       -1.97872
H          0.38538       -3.63628       -0.92192
O          4.29234        1.24250       -2.72323
H          4.68727        1.41474       -3.57787
H          4.76693        0.46586       -2.32930
O          1.00925       -0.67585        3.34006
H          1.13063       -1.03614        4.21969
H          0.27894       -1.21056        2.92372
O          1.77604        2.51615        0.13581
H          2.73492        2.71630        0.13647
H          1.51955        2.32230        1.04628
O          2.89624       -1.80183       -0.65234
H          2.40511       -1.04020       -1.01715
H          2.38925       -2.60967       -0.86610
O         -0.99834       -2.65080       -0.46237
H         -0.90411       -1.76926       -0.87602
H         -1.95643       -2.84236       -0.51702
O          3.48592       -1.05903        1.91259
H          2.66496       -0.88460        2.39366
H          3.21905       -1.44160        1.05321
O         -5.15763       -0.67383       -1.76623
H         -4.40344       -0.13433       -2.12649
H         -5.73257       -0.87460       -2.50547
O          4.46685        2.71651       -0.25016
H          4.90689        2.02874        0.27456
H          4.49549        2.39178       -1.16245
O         -3.70632       -2.61285       -0.21051
H         -4.23375       -2.13882       -0.86772
H         -3.58885       -1.96244        0.50205
O         -3.15223        0.82863       -2.57331
H         -3.20726        1.67130       -2.10745
H         -2.27704        0.46359       -2.33023
O         -1.51977        1.39180        0.79582
H         -0.84007        1.68294        1.43234
H         -1.99657        2.16769        0.47320
O          5.49680        0.49147        1.16372
H          4.74344       -0.01700        1.55502
H          6.21844        0.44482        1.79079
O          0.51009        1.86456        2.60715
H          0.50170        2.48443        3.33685
H          0.72486        0.98015        2.97954
O         -3.30564       -0.52888        1.67484
H         -4.19133       -0.15089        1.56760
H         -2.68906        0.16152        1.36729
O          1.80266        0.53318       -1.67190
H          2.51174        0.81005       -2.27595
H          1.77315        1.23836       -0.98080
O         -5.74937        0.48626        0.64134
H         -5.65772        0.04122       -0.22688
H         -6.59215        0.20300        0.99841
O         -3.61770        2.79108       -0.45101
C         -4.72031        2.93076        0.02013
H         -5.61993        2.93046       -0.61363
H         -4.87207        3.08214        1.09962
