64
H2CO+ASW6_dH9
O          0.95035       -0.37090        2.60537
H          0.78575        0.55466        2.34417
H          1.73766       -0.64135        2.10889
O         -5.67438        1.15033       -0.28600
H         -4.94216        1.46224        0.27527
H         -5.80832        0.22710       -0.01775
O          0.46696        1.30073       -1.03108
H          0.64812        0.34961       -0.90609
H         -0.46720        1.31942       -1.32162
O         -1.64224        3.33540        2.29699
H         -1.65303        4.28776        2.20795
H         -0.72057        3.04993        2.13706
O         -4.62752        0.96146       -2.70252
H         -5.04326        1.50347       -3.37294
H         -5.10573        1.12406       -1.84752
O         -1.08764       -1.97704        2.92032
H         -1.08841       -2.29807        3.82269
H         -0.32332       -1.34283        2.84261
O         -1.89185       -1.95363       -1.72603
H         -2.81906       -2.08627       -2.02238
H         -1.78785       -2.46108       -0.90875
O         -3.22570        1.54149        0.96634
H         -2.72837        1.33900        0.15274
H         -2.73579        2.23974        1.44430
O          0.71778        2.21565        1.56797
H          0.58099        1.97609        0.63117
H          1.67838        2.39693        1.62055
O         -3.61376       -0.93558        2.07032
H         -2.77226       -1.31022        2.36811
H         -3.42484       -0.01318        1.80962
O          4.78017        2.34224       -1.05923
H          3.98554        2.36451       -1.63966
H          5.31693        3.09951       -1.29384
O         -4.53618       -1.87739       -2.30181
H         -4.94785       -1.87746       -1.42179
H         -4.66092       -0.97563       -2.63325
O          3.40510        1.98925        1.43165
H          3.93853        2.30037        0.68703
H          3.29752        1.04145        1.25877
O          2.51023        2.36300       -2.49472
H          2.43922        1.97660       -3.36759
H          1.73943        2.03024       -1.98812
O          0.81873       -1.46099       -0.98522
H          0.39278       -2.01415       -0.30544
H          0.27594       -1.63355       -1.76418
O         -5.49560       -1.61939        0.34454
H         -4.76569       -1.50184        1.00269
H         -6.17773       -2.13151        0.77940
O         -0.74922       -3.18248        0.55253
H         -0.50632       -4.10794        0.59147
H         -0.92089       -2.88819        1.47272
O          3.00839       -0.78652        0.68518
H          3.93105       -0.78727        0.36221
H          2.45973       -1.02017       -0.07582
O         -2.14298        0.76694       -1.48374
H         -2.89103        0.96639       -2.07386
H         -2.04761       -0.21018       -1.51005
O          5.47962       -0.25879       -0.30398
H          5.38912        0.64248       -0.65385
H          6.08274       -0.74330       -0.88155
O          7.54625       -2.01005       -1.15080
C          7.91671       -2.27751       -0.03783
H          8.72388       -3.01085        0.13631
H          7.46246       -1.80128        0.84883
