72
C3H7OH+ASW1_dO4
O          0.12606       -1.81455        2.91803
H          0.62068       -0.97937        2.93196
H         -0.72420       -1.55033        2.52764
O          3.63569        2.05823        2.05330
H          4.02203        2.57024        2.76528
H          3.28630        2.71524        1.39550
O          3.15941       -3.38330       -2.05323
H          3.48730       -3.00172       -1.21392
H          3.88429       -3.87878       -2.43558
O         -0.81969        2.12440        1.31080
H         -0.89406        1.95081        0.34871
H         -0.70263        3.08541        1.38217
O          5.00663       -0.29341        1.46183
H          4.52850        0.54145        1.62054
H          5.86504       -0.04766        1.11737
O         -2.59818       -0.70472       -0.97898
H         -2.03502       -1.45984       -1.24279
H         -3.45849       -1.02471       -0.66221
O          1.70029       -3.70059        1.92425
H          1.06231       -3.02201        2.27086
H          1.79295       -4.35425        2.61847
O          1.24301        0.64064        2.27026
H          2.06704        1.14675        2.36042
H          0.53865        1.27257        2.01627
O          2.56870        3.81846        0.40165
H          1.71883        4.20374        0.67169
H          2.49088        3.65923       -0.55435
O         -2.05544       -0.40898        1.74884
H         -2.05072       -0.47864        0.77598
H         -1.81199        0.51288        1.91651
O          0.86523       -4.50847       -0.69284
H          1.65726       -4.33118       -1.21999
H          1.12666       -4.34612        0.22710
O          1.31114        0.78254       -2.32952
H          1.49199        0.33598       -1.47438
H          1.37621        0.04095       -2.97033
O         -1.16668        1.58996       -1.37661
H         -0.37538        1.23881       -1.82879
H         -1.82391        0.86940       -1.38207
O          1.43080       -0.70607       -0.10313
H          1.32941       -0.25504        0.76008
H          2.20043       -1.29653        0.00610
O          1.35580       -1.64906       -3.52894
H          2.07097       -2.19389       -3.16875
H          0.57476       -1.95073       -3.03538
O         -0.54480        4.28838       -1.69445
H          0.32752        4.09199       -2.07212
H         -1.01009        3.43550       -1.71667
O          3.56188       -2.36503        0.42031
H          4.14965       -1.71364        0.85062
H          3.10024       -2.88385        1.10539
O         -0.06420        4.77554        0.85629
H         -0.33277        5.63768        1.17457
H         -0.31350        4.72199       -0.10257
O         -0.46748       -2.25260       -1.44534
H         -0.20290       -3.16253       -1.19878
H          0.10945       -1.69444       -0.89068
O          2.05412        3.32657       -2.32178
H          1.87107        2.36197       -2.43114
H          2.63159        3.58641       -3.04018
C         -7.52311       -1.12826       -0.05187
H         -7.00605       -2.08774        0.01011
H         -8.05351       -0.97275        0.89294
H         -8.26813       -1.19104       -0.84873
C         -6.53539        0.00563       -0.31189
H         -6.03037       -0.14647       -1.27235
H         -7.06775        0.96012       -0.38664
C         -5.48302        0.14172        0.77282
H         -4.84322        1.01102        0.56955
H         -5.96619        0.29635        1.74706
O         -4.69779       -1.04442        0.80534
H         -3.99810       -0.92592        1.46264
