72
C3H7OH+ASW1_dO3
O          2.28261       -1.17667       -3.09422
H          1.33390       -1.00351       -2.98933
H          2.67123       -0.28342       -3.03312
O         -2.46454       -0.87210       -0.83567
H         -3.42836       -0.84951       -0.97388
H         -2.34092       -0.06959       -0.29531
O          2.72620       -2.99398        2.59023
H          2.04291       -3.20841        1.92176
H          2.75017       -3.72585        3.20740
O          0.19704        2.45809       -1.95532
H          0.61948        2.64123       -1.09218
H         -0.60665        3.00054       -1.95637
O         -1.53167       -3.34651       -0.04549
H         -1.86693       -2.45808       -0.28039
H         -2.06429       -3.96939       -0.53976
O          4.04288        2.53402       -0.49171
H          4.12146        1.64971       -0.05797
H          4.88804        2.97597       -0.40954
O          2.95716       -3.24465       -1.62438
H          2.75240       -2.43826       -2.17505
H          3.24165       -3.92024       -2.24107
O         -0.17273       -0.21915       -2.23571
H         -1.08016       -0.48643       -2.01905
H         -0.14873        0.75997       -2.23469
O         -2.91342        1.59802        0.33979
H         -2.72010        2.34061       -0.26072
H         -2.56402        1.87000        1.20674
O          2.80833        1.54978       -2.88206
H          3.31110        1.95133       -2.15822
H          1.94275        1.97741       -2.85361
O          4.62015       -2.37501        0.50067
H          4.15480       -2.71063        1.28055
H          4.15612       -2.75859       -0.26136
O          0.69454        1.11301        2.20684
H          0.65320        0.46448        1.47265
H          1.36929        0.71972        2.80388
O          1.48251        3.08309        0.42075
H          1.36072        2.41779        1.12491
H          2.42751        3.07925        0.18618
O          1.12079       -0.56492        0.14907
H          0.70379       -0.44746       -0.73042
H          1.11489       -1.52735        0.31541
O          2.79672       -0.19500        3.29608
H          2.70723       -1.15788        3.23371
H          3.34284        0.02970        2.52485
O         -0.77069        4.61964        0.98316
H         -1.07633        4.03415        1.69341
H          0.14123        4.32993        0.81118
O          1.14130       -3.30150        0.42932
H          0.19895       -3.47503        0.23233
H          1.67320       -3.47569       -0.37015
O         -2.11876        3.84075       -1.15259
H         -2.69387        4.49237       -1.55456
H         -1.66409        4.27499       -0.38584
O          3.74299        0.17656        0.64959
H          4.23221       -0.66611        0.52329
H          2.83415       -0.03729        0.35814
O         -1.56359        2.43356        2.63623
H         -0.73509        1.89572        2.60871
H         -1.87125        2.43212        3.54310
C         -5.27304       -3.01760       -0.39131
H         -4.83126       -2.63053       -1.31311
H         -4.46549       -3.21707        0.32087
H         -5.75429       -3.96864       -0.63214
C         -6.28082       -2.02995        0.19327
H         -7.04961       -1.79456       -0.54946
H         -6.79237       -2.48677        1.04721
C         -5.65164       -0.73426        0.67256
H         -6.41500       -0.09886        1.13822
H         -4.88474       -0.95371        1.43000
O         -5.06509       -0.05782       -0.43086
H         -4.56056        0.69895       -0.09412
