72
C3H7OH+ASW1_dO2
O          3.29688       -0.06780       -2.60490
H          2.39651        0.20567       -2.83768
H          3.59715        0.64989       -2.01584
O         -2.02737        0.36739       -2.81587
H         -2.58705        0.47575       -3.58571
H         -2.34842        1.01659       -2.14511
O          1.27327       -3.92628        1.53568
H          0.96749       -3.73489        0.62316
H          1.00713       -4.82435        1.73527
O          0.91182        3.18678       -1.06055
H          0.83476        2.92341       -0.12388
H          0.23211        3.86734       -1.18816
O         -1.59726       -2.31049       -1.85093
H         -1.69807       -1.44445       -2.27370
H         -2.01292       -2.18863       -0.97730
O          3.57621        2.06093        1.82299
H          3.55064        1.07380        1.86230
H          4.23413        2.36477        2.44857
O          3.31100       -2.62594       -1.96903
H          3.34956       -1.65385       -2.18107
H          3.85095       -3.06242       -2.62901
O          0.67632        0.88589       -2.48689
H         -0.23391        0.72884       -2.78968
H          0.70068        1.78782       -2.10751
O         -2.78336        2.23038       -1.04859
H         -2.37631        3.10670       -1.14691
H         -2.83439        2.07871       -0.09189
O          3.63383        2.22581       -1.05456
H          3.74432        2.24115       -0.09336
H          2.84544        2.75937       -1.22156
O          3.86544       -2.88964        0.81037
H          3.12229       -3.42269        1.12814
H          3.77840       -2.87496       -0.15703
O         -0.74606        0.02946        1.82579
H         -0.22329       -0.11530        1.00012
H         -0.28954       -0.55867        2.47585
O          0.86300        2.52374        1.64956
H          0.43981        1.68551        1.88548
H          1.81245        2.43755        1.86069
O          0.93098       -0.47874       -0.15740
H          0.88202        0.01295       -1.00651
H          0.88626       -1.42615       -0.40283
O          0.87441       -1.61673        3.17701
H          0.88506       -2.48652        2.74640
H          1.71205       -1.21517        2.88998
O         -1.28357        4.31912        1.72182
H         -1.90472        3.59403        1.89087
H         -0.41657        3.90746        1.86671
O          0.80152       -3.08224       -0.96591
H         -0.02487       -2.92607       -1.47701
H          1.58018       -3.08160       -1.55035
O         -1.42596        4.71871       -0.89726
H         -1.70337        5.58777       -1.18786
H         -1.40931        4.72530        0.09225
O          2.98104       -0.48600        1.66001
H          3.49245       -1.28926        1.41539
H          2.33352       -0.39758        0.93130
O         -2.70174        1.86897        1.77177
H         -2.01302        1.18165        1.90590
H         -3.45788        1.61296        2.30137
C         -5.11928       -3.35086        0.27465
H         -4.17068       -3.87476        0.40633
H         -5.59592       -3.26600        1.25649
H         -5.76253       -3.96534       -0.35955
C         -4.89505       -1.97393       -0.34385
H         -4.44733       -2.07877       -1.33784
H         -5.85193       -1.45866       -0.47986
C         -3.99976       -1.08264        0.49833
H         -3.90899       -0.09469        0.03100
H         -4.44000       -0.95270        1.49781
O         -2.71951       -1.69174        0.61403
H         -2.12684       -1.11947        1.12377
