72
C3H7OH+ASW1_dO7
O          2.86238       -0.07036        3.21045
H          2.22844        0.62143        2.96457
H          2.32298       -0.88299        3.17063
O          0.24486        3.78657        0.64709
H         -0.10560        4.57327        1.06735
H         -0.49818        3.40748        0.10909
O          5.14723       -0.00821       -2.28761
H          4.92229        0.74419       -1.70323
H          5.85190        0.28924       -2.86395
O         -1.18852       -0.36478        1.76878
H         -1.07435       -0.87303        0.94185
H         -2.06560        0.04602        1.68756
O          2.90476        3.99190       -0.16360
H          1.96565        3.89840        0.08253
H          2.93993        4.68298       -0.82457
O          0.81631       -3.74730        0.70231
H          1.66035       -3.41069        0.31359
H          0.86017       -4.70355        0.70973
O          5.11338        0.30671        1.90749
H          4.26978        0.11013        2.40250
H          5.77717        0.48056        2.57601
O          0.86194        1.39963        1.96452
H          0.61981        2.29573        1.68077
H          0.04456        0.85808        1.96652
O         -1.81033        2.72486       -0.63548
H         -2.44035        2.23427       -0.07943
H         -1.72638        2.20559       -1.45129
O          0.86793       -1.99592        2.97841
H          0.84294       -2.68922        2.30289
H          0.05444       -1.49116        2.84614
O          5.41678       -1.76792       -0.00658
H          5.52438       -1.26309       -0.82541
H          5.42634       -1.10710        0.70506
O          0.58770       -0.39285       -2.29737
H          1.08383        0.01251       -1.55275
H          1.30106       -0.82355       -2.81696
O         -0.88762       -1.92925       -0.52478
H         -0.30476       -1.52959       -1.19967
H         -0.42162       -2.70995       -0.17562
O          2.07447        0.24084       -0.17281
H          1.65338        0.63063        0.62304
H          2.89931        0.74704       -0.30287
O          2.87320       -1.61146       -3.09947
H          3.63664       -1.02216       -3.00792
H          2.89347       -2.13192       -2.27960
O         -3.25192       -0.81664       -1.42452
H         -2.81590       -0.25558       -2.08820
H         -2.56530       -1.44385       -1.13710
O          4.39464        1.70548       -0.33320
H          3.98391        2.58674       -0.23742
H          4.75339        1.42100        0.52908
O         -3.44187        0.88406        0.71895
H         -4.39022        0.87011        0.89560
H         -3.37399        0.27633       -0.04700
O          2.81561       -2.40790       -0.37331
H          3.77160       -2.37543       -0.15039
H          2.51189       -1.49652       -0.18621
O         -1.61711        0.95827       -2.86781
H         -0.74869        0.49305       -2.79743
H         -1.70462        1.25882       -3.77295
C         -8.52445        0.70737        0.28148
H         -7.74789        1.46241        0.13999
H         -9.03049        0.56515       -0.67901
H         -9.25691        1.09895        0.99191
C         -7.92337       -0.60485        0.77950
H         -7.44685       -0.45515        1.75488
H         -8.71339       -1.35002        0.92591
C         -6.89669       -1.18984       -0.17342
H         -6.54074       -2.15590        0.20959
H         -7.36110       -1.36489       -1.15474
O         -5.81657       -0.28036       -0.30024
H         -5.13780       -0.65393       -0.87800
