72
C3H7OH+ASW1_dH3
O         -0.75972        2.35495       -3.03008
H         -0.76379        1.38517       -3.05481
H         -1.62056        2.56267       -2.61977
O          0.24500       -2.78048       -2.13362
H          0.33816       -3.44260       -2.81968
H         -0.38143       -3.15908       -1.46605
O          2.75741        2.16613        1.79993
H          2.81071        1.67126        0.95505
H          3.64154        2.17197        2.16803
O         -3.54456       -0.49362       -1.34046
H         -3.48956       -0.29014       -0.38501
H         -3.96000       -1.36884       -1.38774
O          2.68758       -1.45346       -1.54105
H          1.84140       -1.90117       -1.70369
H          3.19272       -2.02799       -0.94483
O         -3.58253        2.93887        0.91103
H         -2.62736        3.13059        1.07602
H         -4.09315        3.64737        1.30298
O          1.57499        3.17215       -2.13878
H          0.66620        2.90863       -2.45323
H          1.96487        3.67612       -2.85401
O         -1.04798       -0.33323       -2.39380
H         -0.62271       -1.20266       -2.47885
H         -1.97453       -0.48534       -2.11381
O         -1.55574       -3.74252       -0.43646
H         -2.48520       -3.61625       -0.68862
H         -1.51832       -3.55173        0.51544
O         -3.30073        2.34810       -1.88437
H         -3.48625        2.63458       -0.97810
H         -3.58363        1.42476       -1.91646
O          1.29155        4.27239        0.46501
H          1.91075        3.74040        0.98513
H          1.43636        4.00620       -0.45788
O         -0.94436       -0.46265        2.22457
H         -0.57129       -0.21080        1.35153
H         -0.47935        0.14775        2.83688
O         -3.49094        0.19318        1.34405
H         -2.61785        0.07979        1.76681
H         -3.67609        1.14884        1.33460
O         -0.11462        0.67515       -0.04856
H         -0.46254        0.35141       -0.90697
H          0.84306        0.80581       -0.19083
O          0.37252        1.63238        3.33875
H          1.25625        1.72332        2.95135
H         -0.16248        2.25421        2.81852
O         -4.39293       -2.42570        1.71719
H         -3.54052       -2.72129        2.07518
H         -4.32871       -1.45646        1.71835
O          2.53136        1.07322       -0.64936
H          2.66940        0.18855       -1.05746
H          2.37640        1.73971       -1.34350
O         -4.30697       -3.14708       -0.82773
H         -5.00535       -3.73272       -1.12068
H         -4.46809       -2.94963        0.12999
O         -0.96282        2.96642        1.21556
H         -0.27930        3.61937        0.95157
H         -0.74355        2.17895        0.67687
O         -1.67386       -3.00828        2.29097
H         -1.30945       -2.09383        2.37226
H         -1.30886       -3.52170        3.01206
C          5.28317       -0.20580        1.02037
H          5.38641        0.85997        0.80150
H          4.22485       -0.41872        1.18268
H          5.81905       -0.41736        1.95128
C          5.83737       -1.03759       -0.13257
H          5.31412       -0.78928       -1.06139
H          6.89426       -0.80085       -0.29387
C          5.73591       -2.53303        0.10308
H          6.20098       -3.07723       -0.72726
H          6.25455       -2.80411        1.03163
O          4.35529       -2.88809        0.20616
H          4.27552       -3.82173        0.40186
