63
HCO+ASW1_dH7
O         -2.77076        0.90245        2.71440
H         -1.88975        0.53039        2.87418
H         -2.56830        1.76824        2.31152
O          1.68826       -2.03478        2.56674
H          2.14031       -2.31016        3.36556
H          2.36971       -1.60463        1.99218
O         -3.33163       -2.47757       -2.16388
H         -3.00397       -2.72969       -1.27705
H         -3.69586       -3.26970       -2.56028
O          1.14784        2.31567        1.54211
H          1.07961        2.33113        0.56546
H          2.09687        2.36978        1.73354
O         -0.40158       -3.73013        1.77177
H          0.33587       -3.13483        1.99532
H         -0.00368       -4.56229        1.51634
O         -1.63011        3.67649       -1.14967
H         -2.15954        2.87465       -1.37961
H         -2.01312        4.42115       -1.61366
O         -4.28896       -0.95252        1.63677
H         -3.74397       -0.20919        2.01739
H         -4.99586       -1.10949        2.26402
O         -0.11764        0.10851        2.45850
H          0.50016       -0.60735        2.67323
H          0.41654        0.90067        2.23725
O          3.49328       -0.75395        1.07214
H          3.70564        0.14756        1.37261
H          3.29204       -0.65802        0.11998
O         -1.61359        3.21285        1.67980
H         -1.67354        3.49150        0.75413
H         -0.66745        3.11862        1.85013
O         -4.82669       -0.26007       -1.06740
H         -4.51420       -1.04735       -1.53608
H         -4.77708       -0.48861       -0.12504
O          0.58926       -0.10543       -2.12838
H          0.08915       -0.33707       -1.31678
H         -0.05816       -0.30216       -2.83836
O          0.88621        2.49418       -1.20358
H          0.71192        1.64865       -1.66093
H          0.09113        3.04406       -1.31968
O         -1.07243       -0.40201       -0.04239
H         -0.76308       -0.19146        0.86353
H         -1.58298       -1.22928        0.04516
O         -1.69529       -0.51804       -3.54325
H         -2.17699       -1.28897       -3.20928
H         -2.12050        0.22708       -3.08846
O          3.67348        2.29804       -1.12642
H          3.65662        1.39135       -1.47381
H          2.77244        2.62600       -1.28158
O         -2.54452       -2.67662        0.42042
H         -1.87551       -3.13959        0.95999
H         -3.19521       -2.24977        1.01003
O          3.94410        1.99301        1.48043
H          4.68157        2.45532        1.87946
H          3.95520        2.19790        0.50898
O         -2.65244        1.27912       -1.55685
H         -3.55103        0.91597       -1.40194
H         -2.09397        0.77141       -0.93473
O          3.17520       -0.43089       -1.64764
H          2.24584       -0.43565       -1.97405
H          3.67830       -1.08732       -2.13843
O          5.33326       -2.45603       -1.74367
C          5.70034       -2.52023       -0.62779
H          5.22096       -1.97575        0.22696
