63
HCO+ASW1_dH2
O         -0.09318        3.63860       -1.10369
H          0.52764        3.36792       -0.40933
H          0.26114        3.19088       -1.89509
O          2.21522        1.50413        3.18270
H          2.82204        1.98826        3.74444
H          2.67400        0.65857        2.94029
O         -3.89725       -0.41579        0.87302
H         -3.45393        0.23899        1.44637
H         -4.64180       -0.79910        1.34546
O          3.16944        0.80722       -1.18215
H          2.71184       -0.03052       -1.39547
H          4.03508        0.54019       -0.83481
O         -0.48165        1.83754        3.83262
H          0.45055        1.67060        3.60265
H         -0.60892        1.47604        4.70952
O          0.34642       -0.32864       -3.91873
H         -0.50526       -0.28937       -3.42035
H          0.14350       -0.55945       -4.82539
O         -2.54681        3.39623       -0.19124
H         -1.63670        3.48110       -0.58910
H         -2.92461        4.27652       -0.20404
O          1.60112        2.18293        0.54571
H          1.90116        2.10620        1.46567
H          2.27324        1.74877       -0.02093
O          3.52727       -0.65811        2.40808
H          4.18898       -0.53017        1.70851
H          3.08797       -1.49896        2.19899
O          1.36614        2.18898       -2.98277
H          1.04330        1.38890       -3.42220
H          2.16480        1.91073       -2.51548
O         -3.80622        1.20900       -1.48978
H         -4.06542        0.67082       -0.72745
H         -3.47037        2.03737       -1.10980
O          0.18982       -2.18403        0.18758
H          0.02114       -1.23228        0.36773
H         -0.70589       -2.52837        0.00149
O          1.87195       -1.52710       -1.92893
H          1.19010       -1.83078       -1.30051
H          1.40758       -1.26709       -2.74424
O         -0.43222        0.41215        0.23081
H          0.29267        1.06912        0.31271
H         -1.14596        0.74483        0.80968
O         -2.46519       -2.36873       -0.52048
H         -2.89689       -1.71856        0.06332
H         -2.26708       -1.83840       -1.31143
O          4.06429       -2.76259       -0.70721
H          3.53910       -3.05974        0.05254
H          3.40232       -2.47932       -1.35896
O         -2.33925        1.56000        1.83998
H         -1.76445        1.75721        2.60431
H         -2.45441        2.36913        1.30686
O          5.23571       -0.54630        0.14336
H          6.19278       -0.53846        0.11877
H          4.93664       -1.42140       -0.21233
O         -1.63027       -0.23760       -2.16928
H         -2.44259        0.31529       -2.14138
H         -1.12894        0.07060       -1.38727
O          2.32141       -3.05753        1.52149
H          1.45475       -2.83707        1.10694
H          2.17970       -3.81986        2.08354
O         -5.74018       -2.69555        1.15003
C         -5.36467       -3.50249        0.37927
H         -4.41342       -3.42280       -0.20885
