63
HCO+ASW1_dH4
O         -1.10972       -1.86984        2.96357
H         -0.25315       -2.13042        2.59109
H         -0.97065       -0.93535        3.20793
O          2.69079       -3.32690       -0.46223
H          3.36681       -3.99003       -0.31564
H          3.16473       -2.51282       -0.77464
O         -3.57595       -1.11509       -2.34947
H         -2.99194       -1.83929       -2.04493
H         -4.14252       -1.48896       -3.02523
O          2.36828        0.44991        2.02050
H          2.00008        1.09648        1.38363
H          3.32925        0.49954        1.89992
O          0.30389       -4.30818       -1.53306
H          1.13125       -3.92936       -1.18227
H          0.52963       -4.70743       -2.37294
O         -0.94697        2.92026        1.87269
H         -1.57496        2.32786        1.40213
H         -1.34770        3.79189        1.85467
O         -3.04347       -2.83603        1.47335
H         -2.34187       -2.43129        2.05553
H         -3.47982       -3.50097        2.00736
O          1.27251       -1.97109        1.52858
H          1.84532       -2.54916        1.00053
H          1.78382       -1.16322        1.74976
O          3.99393       -1.12533       -1.12882
H          4.38740       -0.61667       -0.40034
H          3.64546       -0.46480       -1.75004
O         -0.12297        0.68251        3.49114
H         -0.43060        1.53292        3.14807
H          0.81598        0.64097        3.26680
O         -4.38709       -0.59881        0.38808
H         -4.33773       -0.76714       -0.56361
H         -4.07468       -1.41591        0.80982
O          0.41452        1.04767       -1.92723
H          0.19746        0.25329       -1.39078
H         -0.45552        1.32203       -2.27878
O          1.28973        2.36848        0.35979
H          0.89603        2.01851       -0.46107
H          0.54893        2.72357        0.88890
O         -0.43715       -0.84083       -0.23689
H          0.17014       -1.25694        0.41308
H         -0.99257       -1.56376       -0.58642
O         -2.27951        1.48063       -2.23270
H         -2.74205        0.68373       -2.53101
H         -2.34253        1.42033       -1.25777
O          3.89697        2.61729       -0.59154
H          3.67427        2.19831       -1.43758
H          3.03387        2.81134       -0.18932
O         -2.01148       -2.93039       -1.06287
H         -1.27350       -3.54363       -1.24650
H         -2.38162       -3.13393       -0.18245
O          4.91924        0.66195        0.86897
H          5.81493        0.79310        1.18078
H          4.66264        1.46954        0.35493
O         -2.25948        1.06379        0.48337
H         -3.10222        0.57914        0.62229
H         -1.58027        0.36289        0.41202
O          2.95502        0.97209       -2.71784
H          1.98048        1.01138       -2.57882
H          3.10918        1.05602       -3.65924
O         -2.55775        4.70679       -0.08706
C         -2.90618        4.55907       -1.20060
H         -2.82149        3.60277       -1.77883
