64
H2CO+ASW8_dH7
O         -0.03305       -2.01472       -2.01201
H          0.15397       -2.78145       -1.44770
H         -0.96965       -1.78202       -1.89922
O          2.67924        3.84248       -0.09414
H          1.94384        3.29742       -0.43797
H          2.34346        4.25519        0.70204
O          4.15206       -1.10716       -1.89312
H          3.26987       -0.67643       -1.79303
H          4.31568       -1.20353       -2.83138
O         -4.43279       -0.33243        2.22312
H         -3.53237       -0.62148        1.92973
H         -4.45230       -0.42526        3.17605
O          4.29770       -1.27399        1.98241
H          4.87548       -0.72408        1.38617
H          4.79087       -1.43792        2.78617
O          5.19860        2.78793        0.08018
H          4.28814        3.13863        0.01861
H          5.74111        3.36442       -0.45705
O          0.99239       -3.95624       -0.23603
H          1.93803       -3.67081       -0.16106
H          1.00773       -4.90492       -0.36491
O         -2.65234       -1.14478       -1.49082
H         -3.43418       -1.69673       -1.64613
H         -2.92380       -0.21782       -1.67363
O         -2.08977       -0.90323        1.15368
H         -1.42442       -1.57926        1.44145
H         -2.25503       -1.05562        0.19876
O          1.72901       -0.38994        1.49278
H          2.61928       -0.59699        1.82900
H          1.81544       -0.35862        0.51875
O          3.51201       -3.12799       -0.02158
H          3.81636       -2.56569       -0.75230
H          3.77409       -2.64889        0.78130
O          1.74422       -0.17721       -1.28682
H          1.05167       -0.81351       -1.59498
H          1.37675        0.71781       -1.39857
O         -0.08440       -2.46482        1.88549
H          0.61973       -1.79036        1.85101
H          0.19126       -3.12716        1.23136
O         -0.44697        1.29830        1.40449
H          0.37229        0.87520        1.71815
H         -1.07654        0.55515        1.29706
O         -2.16551        3.49287        1.07294
H         -1.51315        2.85065        1.39716
H         -3.02587        3.05681        1.17810
O         -3.50497        1.41540       -1.64049
H         -3.93111        1.64246       -0.79996
H         -2.91051        2.15737       -1.82811
O         -4.59171        2.03470        0.94470
H         -5.46078        2.43040        1.01911
H         -4.60815        1.20859        1.47860
O         -1.76344        3.66092       -1.55538
H         -1.92200        3.75104       -0.58319
H         -1.87051        4.52743       -1.94815
O          0.57287        2.28145       -0.94194
H         -0.12623        2.77186       -1.40537
H          0.14122        1.93487       -0.13206
O          5.63869        0.07679        0.18177
H          5.28109       -0.26783       -0.65110
H          5.50596        1.04333        0.15344
C         -5.60832       -2.44204       -0.30738
O         -5.04955       -2.65986       -1.35228
H         -6.54934       -2.96220       -0.05207
H         -5.21578       -1.72543        0.43466
