64
H2CO+ASW8_dH1
O         -0.79155       -2.81782        1.89622
H         -1.23725       -3.34448        1.21277
H          0.16457       -2.93774        1.79260
O         -0.64179        3.75031        0.53503
H         -0.30423        2.94031        0.95356
H         -0.12416        3.85178       -0.27666
O         -4.33513       -0.22410        1.73678
H         -3.35053       -0.20185        1.78571
H         -4.66255       -0.32737        2.63029
O          4.17509       -2.01032       -2.31756
H          3.29753       -2.25588       -1.94724
H          4.02142       -1.75731       -3.22803
O         -4.00764        0.14225       -2.11354
H         -4.38470        0.81392       -1.48069
H         -4.39533        0.30946       -2.97252
O         -3.33037        3.90790        0.24634
H         -2.35572        3.83845        0.33707
H         -3.58989        4.69610        0.72131
O         -2.39583       -3.91319       -0.14158
H         -3.12416       -3.24647       -0.22945
H         -2.81791       -4.77268       -0.13909
O          2.04118       -3.05404        1.60747
H          2.44627       -3.82491        2.00649
H          2.63923       -2.29262        1.80552
O          1.84115       -2.39333       -1.06494
H          0.96749       -2.67052       -1.44072
H          1.90724       -2.78766       -0.17751
O         -1.40408       -0.22057       -1.29090
H         -2.24164        0.02798       -1.72240
H         -1.60266       -0.26152       -0.33459
O         -4.31051       -2.08603       -0.38837
H         -4.46477       -1.53848        0.39845
H         -4.25132       -1.45098       -1.12103
O         -1.69676       -0.33677        1.48954
H         -1.33597       -1.22993        1.70550
H         -1.01587        0.30791        1.75274
O         -0.60443       -2.79043       -1.98910
H         -0.95250       -1.89099       -1.83983
H         -1.18786       -3.35721       -1.46032
O          1.24787        0.29706       -0.83388
H          0.36346        0.32804       -1.24338
H          1.50855       -0.64643       -0.86981
O          3.46648        1.83489       -0.31262
H          2.66500        1.38496       -0.64499
H          4.18454        1.20322       -0.48600
O          3.75525       -1.03495        1.90844
H          4.28158       -0.86013        1.11137
H          3.51190       -0.16084        2.24968
O          5.18253       -0.37541       -0.47932
H          6.13791       -0.44108       -0.45975
H          4.87453       -0.96539       -1.21041
O          3.10980        1.69022        2.34408
H          3.31131        1.88962        1.39904
H          3.57351        2.32948        2.88506
O          0.44339        1.36424        1.56673
H          1.22217        1.51450        2.12300
H          0.79229        0.92882        0.76193
O         -4.89837        1.72356       -0.22935
H         -4.82586        1.17188        0.56409
H         -4.36493        2.52357       -0.05493
C          2.35953        4.19106       -1.20550
O          1.25102        3.97311       -1.62078
H          3.23432        4.20837       -1.87536
H          2.54945        4.39496       -0.13804
