64
H2CO+ASW8_dH3
O          0.57428       -1.70877       -2.74776
H          0.85560       -2.51608       -2.28825
H         -0.39490       -1.70047       -2.78471
O          1.37571        4.05488        0.57871
H          0.86663        3.44959        0.00441
H          0.80441        4.25003        1.32194
O          4.37313        0.06772       -1.72463
H          3.40944        0.27387       -1.74523
H          4.71470        0.20923       -2.60769
O         -4.47991       -1.55054        1.34770
H         -3.68031       -1.82422        0.86056
H         -4.16745       -1.41032        2.25362
O          3.95874       -0.88221        2.02925
H          4.45894       -0.10375        1.65811
H          4.35309       -1.09962        2.87391
O          4.01631        3.56471        1.09490
H          3.06725        3.71113        0.91212
H          4.46476        4.36468        0.82227
O          1.80521       -3.72150       -1.18775
H          2.62420       -3.24548       -0.89805
H          2.09145       -4.57910       -1.50354
O         -2.25834       -1.54058       -2.74209
H         -2.76216       -2.07522       -3.35680
H         -2.73414       -0.67411       -2.67317
O         -2.11215       -1.83551       -0.00522
H         -1.33814       -2.38441        0.25955
H         -2.17844       -1.87489       -0.97584
O          1.37938       -0.50158        1.15934
H          2.22601       -0.56908        1.63786
H          1.60950       -0.23346        0.24569
O          3.96096       -2.38719       -0.38060
H          4.22355       -1.63319       -0.93305
H          3.98542       -2.04697        0.52835
O          1.74274        0.31107       -1.46636
H          1.28093       -0.39108       -1.98663
H          1.17314        1.10121       -1.49289
O          0.12674       -2.95693        0.91439
H          0.64254       -2.13939        1.05155
H          0.64321       -3.44988        0.25669
O         -1.13583        0.57433        0.93274
H         -0.26584        0.28760        1.26536
H         -1.53705       -0.23182        0.54560
O         -3.21132        2.49794        0.75372
H         -2.50207        1.90943        1.05564
H         -3.98629        1.91945        0.64959
O         -3.65256        0.67823       -2.35399
H         -4.22828        0.62730       -1.57152
H         -3.26407        1.56635       -2.32990
O         -5.16428        0.62998        0.03709
H         -6.11537        0.74214        0.02800
H         -4.97882       -0.19327        0.56330
O         -2.57370        3.21915       -1.71720
H         -2.85577        3.09759       -0.77494
H         -2.87356        4.08236       -2.00269
O         -0.08705        2.28577       -0.94839
H         -0.80829        2.70825       -1.44484
H         -0.53777        1.68346       -0.32032
O          5.14781        1.08522        0.78590
H          5.03250        0.85824       -0.14953
H          4.76586        1.97663        0.89996
C         -1.76601       -1.33718        3.48187
O         -2.91949       -1.07020        3.70095
H         -1.45736       -1.95157        2.61922
H         -0.96185       -0.98000        4.14935
