72
C3H7SH+ASW1_dO7
O         -2.27504       -1.00098       -3.12983
H         -1.87415       -0.12452       -3.02149
H         -1.54829       -1.60335       -2.88349
O         -0.98053        3.86876       -1.39201
H         -0.79290        4.60600       -1.97483
H         -0.22328        3.82276       -0.75254
O         -5.07653       -0.37674        2.10229
H         -4.98509        0.26821        1.37147
H         -5.88957       -0.16314        2.56115
O          1.53263        0.15356       -1.42992
H          1.45075       -0.20041       -0.52184
H          2.22439        0.83518       -1.37247
O         -3.68451        3.52096       -0.78942
H         -2.73002        3.63668       -0.95070
H         -3.97890        4.31614       -0.34584
O          0.32208       -3.38803        0.23340
H         -0.61422       -3.22160        0.50328
H          0.52647       -4.30362        0.42393
O         -4.67085       -0.97000       -2.04594
H         -3.75978       -1.03794       -2.44508
H         -5.28617       -1.12543       -2.76360
O         -0.86690        1.18752       -2.16145
H         -0.88360        2.15409       -2.07192
H          0.05244        0.89438       -1.99087
O          1.13565        3.67863        0.18567
H          1.93182        3.29115       -0.21268
H          1.10168        3.33092        1.09220
O          0.12947       -2.20686       -2.37236
H          0.23756       -2.70840       -1.55083
H          0.75982       -1.47810       -2.30643
O         -4.66997       -2.58911        0.28650
H         -4.97902       -1.96444        0.95835
H         -4.76433       -2.12174       -0.55956
O         -0.57911        0.45366        2.40421
H         -1.08027        0.54928        1.56535
H         -1.21694       -0.02482        2.97719
O          1.38354       -0.98451        1.09519
H          0.66403       -0.62179        1.64877
H          1.16401       -1.91706        0.91879
O         -1.96190        0.20889        0.12564
H         -1.57664        0.52475       -0.71952
H         -2.89490        0.49571        0.10581
O         -2.57603       -1.11380        3.36075
H         -3.44599       -0.77832        3.09768
H         -2.38395       -1.78876        2.68948
O          3.30722        0.89982        1.72659
H          2.71470        1.45597        2.25812
H          2.80361        0.07947        1.58515
O         -4.57369        1.01464       -0.15941
H         -4.38275        1.93186       -0.43656
H         -4.75335        0.46989       -0.94924
O          3.34133        2.12330       -0.65907
H          4.23534        2.22380       -0.99822
H          3.44561        1.69745        0.22492
O         -2.04024       -2.43654        0.90042
H         -2.94742       -2.70477        0.63715
H         -1.95255       -1.53790        0.52326
O          1.15723        2.43641        2.73457
H          0.44861        1.74954        2.73891
H          1.07894        2.92639        3.55378
C          3.79469       -3.10184       -0.43692
H          2.85519       -2.62012       -0.72071
H          4.21315       -3.56701       -1.33429
H          3.56318       -3.89720        0.27613
C          4.76942       -2.09492        0.16987
H          5.70914       -2.58696        0.43817
H          4.35134       -1.69119        1.09769
C          5.05445       -0.94770       -0.79087
H          5.51575       -1.32055       -1.70897
H          4.12444       -0.45197       -1.07405
S          6.23001        0.29834       -0.14668
H          5.54967        0.55833        0.98655
