72
C3H7SH+ASW1_dO2
O          0.17404       -3.61905        2.12669
H         -0.32147       -2.84080        2.42670
H         -0.35372       -3.93416        1.36833
O         -1.29728        1.33530        3.26798
H         -1.64296        1.70638        4.08093
H         -1.90271        1.63436        2.54459
O          4.19023       -0.30599       -0.72557
H          3.80405       -0.16560        0.16481
H          5.09035        0.01924       -0.69113
O         -3.19631       -1.61517        0.41720
H         -2.84995       -1.30719       -0.44376
H         -4.02677       -1.12883        0.54118
O          1.53562        1.57468        3.03772
H          0.58373        1.41608        3.15546
H          1.56441        2.40863        2.55351
O         -1.16024       -3.38966       -2.60174
H         -0.22548       -3.13424       -2.41064
H         -1.15618       -3.96408       -3.36754
O          2.72473       -3.01740        2.06062
H          1.76314       -3.28443        2.05525
H          3.14976       -3.56967        2.71799
O         -1.25117       -1.24533        2.26502
H         -1.35448       -0.44221        2.80044
H         -2.05472       -1.34300        1.71214
O         -2.97444        1.95947        1.30978
H         -3.76916        1.41834        1.17490
H         -2.71503        2.26256        0.42337
O         -1.71926       -4.06622        0.13923
H         -1.57172       -3.98957       -0.81414
H         -2.41387       -3.42162        0.33199
O          3.46721       -3.08386       -0.67597
H          3.90519       -2.22531       -0.76936
H          3.30215       -3.17816        0.27656
O         -0.22666        0.98241       -1.71892
H         -0.00372        0.49839       -0.89258
H          0.59511        0.88827       -2.24388
O         -2.27769       -0.90209       -2.10589
H         -1.51055       -0.30231       -2.13368
H         -1.97944       -1.75953       -2.46002
O          0.48216       -0.62700        0.28004
H         -0.13518       -0.87131        1.00440
H          1.34976       -0.48383        0.70728
O          2.14443        0.10492       -2.75058
H          2.91216        0.14018       -2.16124
H          1.83806       -0.81359       -2.66128
O         -4.37557        0.95216       -2.02915
H         -3.78126        1.71350       -1.94912
H         -3.78625        0.22044       -2.27621
O          2.85483       -0.31859        1.60738
H          2.49297        0.32497        2.25281
H          2.88491       -1.20963        2.00489
O         -5.15236        0.37237        0.43806
H         -6.09005        0.44252        0.61743
H         -5.01087        0.60779       -0.51360
O          1.12035       -2.34753       -1.79053
H          1.93725       -2.79051       -1.46936
H          0.80630       -1.84550       -1.01245
O         -2.25534        2.69709       -1.32143
H         -1.45349        2.17882       -1.55215
H         -1.99986        3.62129       -1.33682
C          3.58470        2.95148       -1.76331
H          3.05043        2.68863       -2.68014
H          3.98170        3.96483       -1.87659
H          4.43120        2.26817       -1.67232
C          2.66968        2.85025       -0.54579
H          3.22594        3.08365        0.36828
H          2.30301        1.82456       -0.43886
C          1.48234        3.79468       -0.66895
H          1.81881        4.83109       -0.75527
H          0.90128        3.56100       -1.56354
S          0.35369        3.78966        0.76930
H         -0.12024        2.54437        0.58248
