72
C3H7SH+ASW1_dH2
O          1.87655        3.83176        0.77909
H          2.16890        3.08260        1.32041
H          2.28978        3.64476       -0.08508
O          2.06291       -0.67664        3.62916
H          2.60152       -0.79296        4.41307
H          2.26306       -1.44875        3.03884
O         -3.39638        1.21248        0.03161
H         -2.91465        1.32397        0.87309
H         -4.27611        0.86631        0.23749
O          3.98682        0.21397       -0.35660
H          3.37548       -0.17428       -1.01464
H          4.57419       -0.51468       -0.10222
O         -0.45739        0.43679        4.07565
H          0.40175        0.01306        3.89542
H         -0.93340       -0.15739        4.65511
O          1.89261        1.62318       -3.58983
H          0.98713        1.79212       -3.23318
H          1.90279        1.90654       -4.50417
O         -0.69816        4.23385        1.16845
H          0.26845        4.10093        0.96701
H         -0.77120        5.11332        1.54113
O          2.53231        1.27365        1.67327
H          2.49766        0.68855        2.44656
H          3.15126        0.87099        1.02866
O          2.75265       -2.65811        2.02121
H          3.59292       -2.53905        1.54786
H          2.15083       -3.07578        1.38316
O          3.30309        2.83483       -1.39917
H          2.89386        2.51479       -2.21629
H          3.79964        2.07997       -1.05677
O         -2.14870        3.49621       -1.16786
H         -2.78529        2.85238       -0.82382
H         -1.70900        3.86563       -0.38493
O          0.00216       -1.50484       -0.96557
H          0.10994       -0.74844       -0.34709
H         -0.86254       -1.30913       -1.38663
O          2.31832       -0.81150       -2.31330
H          1.42521       -1.02367       -1.97998
H          2.21785       -0.07059       -2.93663
O          0.23803        0.83030        0.28720
H          1.06012        1.03419        0.78235
H         -0.49094        1.15194        0.85287
O         -2.23168       -0.35636       -1.99455
H         -2.66785        0.12128       -1.26631
H         -1.68260        0.33688       -2.39706
O          3.48486       -3.26274       -1.64437
H          2.68808       -3.59332       -1.20009
H          3.18126       -2.48143       -2.13516
O         -1.64511        1.80428        2.02404
H         -1.28154        1.40611        2.83796
H         -1.36515        2.73689        1.96890
O          4.99287       -2.32256        0.31901
H          5.85959       -2.72012        0.40565
H          4.54824       -2.74954       -0.45663
O         -0.37483        1.76250       -2.24702
H         -0.97321        2.51111       -2.02923
H         -0.04134        1.48433       -1.37061
O          1.15699       -3.70879       -0.06108
H          0.59575       -2.96684       -0.39176
H          0.60188       -4.48795       -0.02100
C         -2.79305       -3.44123       -0.26736
H         -3.32666       -4.38277       -0.42850
H         -2.37820       -3.11706       -1.22477
H         -1.96166       -3.63486        0.41526
C         -3.71831       -2.37199        0.30917
H         -3.14872       -1.46357        0.52429
H         -4.13425       -2.71907        1.26194
C         -4.85450       -2.04074       -0.65104
H         -4.45440       -1.62589       -1.57944
H         -5.42661       -2.93604       -0.90344
S         -6.02058       -0.76961       -0.03574
H         -6.28099       -1.34638        1.15080
