72
C3H7SH+ASW1_dH7
O         -3.53918        0.11263        2.44847
H         -2.61760        0.26112        2.71021
H         -3.74501        0.90524        1.91574
O          1.80571       -0.14927        2.87777
H          2.26977       -0.03641        3.70868
H          2.17494        0.53514        2.26007
O         -1.71664       -3.68105       -1.77291
H         -1.44584       -3.61753       -0.83465
H         -1.60727       -4.59613       -2.03346
O         -0.78656        3.16978        1.22872
H         -0.71677        3.02137        0.26362
H         -0.04866        3.76123        1.44660
O          0.82150       -2.73817        2.47922
H          1.17566       -1.83353        2.55479
H          1.58125       -3.31395        2.38827
O         -3.47918        2.54927       -1.78272
H         -3.48874        1.56836       -1.89776
H         -4.11748        2.92047       -2.39199
O         -3.83609       -2.36263        1.63022
H         -3.76505       -1.40631        1.90626
H         -4.45495       -2.76879        2.23828
O         -0.82826        0.75878        2.44855
H          0.03992        0.49036        2.78575
H         -0.74453        1.67955        2.11937
O          2.71784        1.78121        1.31958
H          2.42287        2.68986        1.49565
H          2.73961        1.70541        0.34670
O         -3.59564        2.52983        1.08590
H         -3.67248        2.61315        0.12417
H         -2.75484        2.95376        1.30522
O         -4.24874       -2.40446       -1.17858
H         -3.52717       -2.97799       -1.47385
H         -4.22966       -2.44692       -0.20864
O          0.45862        0.36712       -1.96932
H          0.04324        0.01393       -1.15425
H          0.10291       -0.22623       -2.66363
O         -0.72759        2.84183       -1.51581
H         -0.39060        1.97882       -1.82351
H         -1.66870        2.87936       -1.76258
O         -1.08096       -0.49139        0.04844
H         -1.03611       -0.03057        0.91315
H         -1.14473       -1.44138        0.26167
O         -1.08471       -1.36109       -3.39907
H         -1.16570       -2.21726       -2.95394
H         -1.88096       -0.88408       -3.11379
O          1.69634        4.24233       -1.32154
H          2.23526        3.46312       -1.53268
H          0.79338        3.97440       -1.55816
O         -1.33019       -3.11459        0.84125
H         -0.60929       -3.08841        1.49987
H         -2.18547       -3.00039        1.29904
O          1.70912        4.42420        1.31750
H          2.07009        5.23580        1.67463
H          1.75832        4.48751        0.32869
O         -3.06582       -0.05730       -1.82704
H         -3.67834       -0.80418       -1.65229
H         -2.41870       -0.11996       -1.09664
O          2.75760        1.64038       -1.46057
H          1.97529        1.11847       -1.74626
H          3.52633        1.13685       -1.75714
C          3.28846       -3.60544        0.17572
H          2.23050       -3.38344        0.00036
H          3.74853       -3.83761       -0.78811
H          3.35093       -4.51162        0.78502
C          3.99048       -2.43362        0.85563
H          5.05233       -2.65890        0.99170
H          3.57349       -2.27550        1.85753
C          3.84203       -1.11288        0.11045
H          2.78923       -0.87374       -0.05562
H          4.26979       -0.29373        0.69069
S          4.71455       -1.03181       -1.50020
H          3.85503       -1.78755       -2.20478
