72
C3H7SH+ASW1_dO6
O         -1.97635       -3.80862        0.77170
H         -2.23697       -3.03576        1.29607
H         -2.35849       -3.61251       -0.10472
O         -2.00189        0.71628        3.59105
H         -2.54818        0.85196        4.36656
H         -2.17693        1.48679        2.99100
O          3.43878       -1.54913        0.14448
H          2.95364       -1.61681        0.98920
H          4.32334       -1.20995        0.32422
O         -3.87286       -0.11175       -0.42955
H         -3.22288        0.24964       -1.06484
H         -4.44373        0.63819       -0.19981
O          0.46138       -0.49653        4.09521
H         -0.37384       -0.03596        3.89439
H          0.94770        0.07431        4.68946
O         -1.76349       -1.62323       -3.59049
H         -0.87920       -1.84651       -3.21027
H         -1.76672       -1.90316       -4.50597
O          0.55552       -4.34837        1.23980
H         -0.39710       -4.16611        1.01046
H          0.57069       -5.22386        1.62856
O         -2.49735       -1.21431        1.62907
H         -2.45427       -0.62981        2.40260
H         -3.09521       -0.79291        0.97642
O         -2.62013        2.69356        1.94592
H         -3.45790        2.60412        1.46221
H         -1.99252        3.07211        1.30803
O         -3.29697       -2.76381       -1.44609
H         -2.85329       -2.45941       -2.25111
H         -3.76862       -1.98853       -1.11422
O          2.08014       -3.74972       -1.08447
H          2.75369       -3.15101       -0.73091
H          1.60215       -4.08021       -0.30633
O          0.24613        1.44396       -0.94332
H          0.08397        0.68728       -0.33648
H          1.10506        1.20639       -1.34978
O         -2.09145        0.82980       -2.33435
H         -1.19674        1.01405       -1.99221
H         -2.00968        0.07853       -2.94878
O         -0.14993       -0.87735        0.30083
H         -1.00402       -1.03835        0.75665
H          0.53442       -1.22456        0.90620
O          2.42830        0.10863       -1.89715
H          2.78270       -0.41136       -1.15368
H          1.84350       -0.53316       -2.33284
O         -3.24615        3.31042       -1.74766
H         -2.45475        3.63008       -1.28636
H         -2.94487        2.51211       -2.21164
O          1.61294       -1.96822        2.09536
H          1.26247       -1.54419        2.90168
H          1.27369       -2.88123        2.03581
O         -4.83283        2.44888        0.18869
H         -5.69250        2.86647        0.24601
H         -4.35598        2.85500       -0.57914
O          0.45917       -1.89301       -2.19985
H          0.99860       -2.68160       -1.96951
H          0.13622       -1.58463       -1.32943
O         -0.95193        3.67038       -0.11280
H         -0.38980        2.92147       -0.42030
H         -0.36961        4.42233        0.00175
C          2.59898        3.81663        0.32952
H          1.77297        3.16151        0.62104
H          3.00663        4.27267        1.23678
H          2.19931        4.62040       -0.29584
C          3.66974        3.03187       -0.42562
H          4.49689        3.69186       -0.70306
H          3.25283        2.63190       -1.35502
C          4.20234        1.87310        0.40707
H          4.63059        2.23443        1.34589
H          3.39548        1.17929        0.65626
S          5.55914        0.94522       -0.39687
H          4.89641        0.69285       -1.54194
