72
C3H7SH+ASW1_dO3
O          3.51747       -0.60657       -2.82382
H          2.66915       -1.06564       -2.72556
H          3.24646        0.32332       -2.94780
O         -0.66496       -3.27765       -0.88074
H         -1.12282       -3.96442       -1.36769
H         -1.36327       -2.65265       -0.55874
O          4.33706       -0.73043        3.07105
H          4.03856       -1.44550        2.47290
H          4.76838       -1.15258        3.81467
O         -0.48740        0.96923       -2.49213
H         -0.43663        1.50671       -1.67617
H         -1.43449        0.84647       -2.65725
O          1.57553       -4.14084        0.55144
H          0.78114       -3.81399        0.09106
H          1.26890       -4.78457        1.18965
O          2.14428        3.74311       -1.04395
H          2.73382        3.23234       -0.43814
H          2.46649        4.64414       -1.07260
O          5.18958       -1.45300       -0.98432
H          4.58101       -1.08412       -1.68345
H          5.91066       -1.87222       -1.45554
O          0.92745       -1.30579       -2.08197
H          0.36693       -2.05883       -1.83755
H          0.33645       -0.55959       -2.31699
O         -2.53425       -1.51804       -0.19369
H         -2.69572       -0.85513       -0.89212
H         -2.45658       -1.00531        0.62935
O          2.19653        1.81504       -3.17182
H          2.22586        2.55515       -2.54814
H          1.26086        1.58244       -3.23666
O          5.65002        0.63555        0.88444
H          5.40262        0.20839        1.71710
H          5.62480       -0.07047        0.21811
O          0.24458        0.92680        1.90808
H          0.75949        0.32745        1.32439
H          0.91166        1.19403        2.57754
O         -0.26484        2.59940       -0.25683
H         -0.00910        2.14106        0.56629
H          0.47834        3.18278       -0.49256
O          1.92353       -0.31982        0.24612
H          1.59603       -0.65447       -0.61594
H          2.50459       -1.02262        0.59495
O          2.53277        1.52823        3.23007
H          3.08265        0.73976        3.35029
H          2.89920        1.93641        2.42835
O         -3.01254        2.20002        0.04995
H         -2.86898        1.61291        0.80993
H         -2.15283        2.63274       -0.08157
O          3.58859       -2.35550        1.04177
H          2.96832       -3.09029        0.87015
H          4.20814       -2.27484        0.29146
O         -3.19195        0.49826       -2.01127
H         -4.09092        0.31820       -2.30635
H         -3.25197        1.20009       -1.32157
O          3.34925        2.02352        0.55578
H          4.27651        1.70224        0.58333
H          2.83992        1.22138        0.32334
O         -2.30104        0.24521        1.97772
H         -1.34641        0.46992        2.10683
H         -2.69547        0.15037        2.84555
C         -5.63454        0.70883        2.72331
H         -4.85483        1.44076        2.49204
H         -6.57989        1.25254        2.80651
H         -5.42083        0.27344        3.70369
C         -5.71274       -0.37306        1.64756
H         -6.50839       -1.08614        1.88271
H         -4.77769       -0.94269        1.62419
C         -5.95477        0.22374        0.26710
H         -6.91088        0.75220        0.23664
H         -5.17588        0.94838        0.02277
S         -6.06724       -1.02786       -1.06429
H         -4.92260       -1.66468       -0.74760
