65
CH3S+ASW1_dH5
O          2.18151       -1.31951       -1.41092
H          1.54421       -1.77661       -0.83862
H          1.63263       -1.06159       -2.17747
O         -1.08143       -2.74957        2.54414
H         -1.16081       -3.64036        2.88828
H         -2.00491       -2.45184        2.33389
O          1.64826        3.52655        2.13734
H          1.75967        2.58773        2.39215
H          2.02269        4.05209        2.84496
O         -2.06367       -1.76406       -1.74685
H         -2.37218       -0.83586       -1.70554
H         -2.85511       -2.29985       -1.57994
O          0.92648       -1.23403        3.76061
H          0.19387       -1.71967        3.33911
H          0.69930       -1.16390        4.68764
O         -0.91714        1.73976       -3.52057
H         -0.34428        2.16918       -2.83914
H         -0.92579        2.30696       -4.29173
O          3.55223        0.36233        0.16716
H          3.02285       -0.19060       -0.45809
H          4.45294        0.01110        0.10652
O         -0.05325       -2.08318        0.03649
H         -0.34979       -2.48492        0.86901
H         -0.81154       -2.09834       -0.58558
O         -3.53323       -2.06358        1.83941
H         -3.85196       -2.42021        0.99383
H         -3.87046       -1.15290        1.88093
O          0.20986       -0.88542       -3.30836
H         -0.14048       -0.00564       -3.51322
H         -0.55188       -1.38835       -2.99032
O          2.87778        3.03617       -0.43943
H          2.61166        3.37029        0.42899
H          3.25695        2.15735       -0.26885
O         -2.38548        1.87452        0.74363
H         -1.58066        1.31549        0.80108
H         -2.02011        2.78178        0.83110
O         -2.91053        0.86869       -1.78668
H         -2.71653        1.37199       -0.97244
H         -2.37499        1.26460       -2.49680
O         -0.04161        0.60298        0.50572
H         -0.01919       -0.35688        0.30950
H          0.64295        0.74720        1.18776
O         -0.80430        4.07731        0.70585
H         -0.06064        3.99104        1.32085
H         -0.42510        3.80189       -0.14486
O         -5.34194       -0.22060       -0.93689
H         -5.24721        0.13231       -0.03776
H         -4.66430        0.24865       -1.45070
O          1.98796        0.85213        2.33179
H          1.73646        0.10588        2.90854
H          2.68527        0.55975        1.71042
O         -4.50050       -2.72007       -0.74747
H         -5.13526       -3.39460       -0.98989
H         -4.93822       -1.84016       -0.87826
O          0.39010        2.56711       -1.38500
H          1.33674        2.79047       -1.24483
H          0.25128        1.79180       -0.80512
O         -4.50605        0.57738        1.65872
H         -3.74539        1.16268        1.42647
H         -5.00611        1.02247        2.34344
C          5.03572       -2.80773       -0.71455
H          4.64808       -3.07379        0.27476
H          4.17956       -2.43539       -1.28828
H          5.47740       -3.68390       -1.18663
S          6.23274       -1.48626       -0.50233
