65
CH3S+ASW1_dH3
O          1.36851       -2.50588        2.71724
H          0.75270       -1.77645        2.88849
H          0.82238       -3.13170        2.20458
O         -1.09803        2.18788        2.69786
H         -1.45054        2.65577        3.45629
H         -1.80919        2.19901        2.00975
O          3.87143        0.68543       -1.65011
H          3.62697        0.94049       -0.73609
H          4.60906        1.23971       -1.90698
O         -2.63323       -1.79725        1.22187
H         -2.48310       -1.76374        0.25606
H         -3.50317       -1.38972        1.35609
O          1.61313        2.79199        2.20469
H          0.68282        2.56354        2.37469
H          1.57910        3.60271        1.68079
O         -0.55081       -4.07917       -1.49812
H          0.30248       -3.59475       -1.60715
H         -0.50082       -4.87913       -2.02161
O          3.68315       -1.53685        1.94327
H          2.81771       -1.95355        2.21224
H          4.32075       -1.79231        2.61107
O         -0.57889       -0.53620        2.46295
H         -0.79722        0.37067        2.73294
H         -1.40107       -0.95281        2.12987
O         -3.07922        2.06476        0.93264
H         -3.73114        1.36226        1.09318
H         -2.98228        2.11368       -0.03174
O         -0.62871       -3.89179        1.36590
H         -0.62149       -4.08824        0.41779
H         -1.43504       -3.37962        1.51033
O          4.05799       -2.09057       -0.81208
H          4.19537       -1.20482       -1.17669
H          4.04593       -1.97325        0.15209
O         -0.66904        0.36018       -2.09568
H         -0.22276        0.25801       -1.22669
H          0.08213        0.29606       -2.72599
O         -2.22634       -1.86343       -1.52324
H         -1.62625       -1.17379       -1.86421
H         -1.77790       -2.71607       -1.66394
O          0.71442       -0.31076        0.09497
H          0.25236       -0.43037        0.95357
H          1.55840        0.12738        0.32042
O          1.67915       -0.15981       -3.32245
H          2.42793        0.25929       -2.87202
H          1.67055       -1.06020       -2.95719
O         -4.55984       -0.32596       -1.58538
H         -4.08585        0.48323       -1.83234
H         -3.91123       -1.03627       -1.72075
O          3.03337        0.90542        0.89776
H          2.62883        1.58986        1.47427
H          3.37323        0.17408        1.44798
O         -4.87778       -0.12506        1.03526
H         -5.77903       -0.13794        1.35836
H         -4.91312       -0.22339        0.05048
O          1.47804       -2.38398       -1.56826
H          2.42437       -2.49506       -1.33078
H          1.15331       -1.74564       -0.90242
O         -2.79961        1.91157       -1.87657
H         -1.96484        1.42216       -2.07392
H         -2.88736        2.60687       -2.52937
C          0.53448        3.18769       -1.02873
H          0.66828        3.08360       -2.10548
H          1.00922        2.36460       -0.49455
H         -0.54054        3.14184       -0.81554
S          1.11448        4.78211       -0.44148
