69
C2H5OH+ASW1_dH4
O         -1.60109       -1.40486       -3.13579
H         -1.85218       -0.49333       -2.92021
H         -0.62480       -1.36424       -3.13324
O         -3.39003        2.97402       -0.67855
H         -3.88298        3.66682       -1.12028
H         -2.64603        3.42535       -0.20099
O         -2.68009       -3.02868        2.52150
H         -3.21394       -2.46842        1.92205
H         -3.29062       -3.43673        3.13612
O          0.81989        1.97395       -1.92382
H          1.21762        1.63944       -1.09402
H          0.94138        2.93530       -1.88984
O         -4.95576        0.87266        0.27853
H         -4.38187        1.60410       -0.01539
H         -5.52008        1.23629        0.96054
O          2.63976       -1.44882       -0.81225
H          2.00323       -2.02823       -0.34250
H          3.52097       -1.85729       -0.77633
O         -3.05640       -3.04070       -1.68319
H         -2.45906       -2.45883       -2.23091
H         -3.57583       -3.54756       -2.30841
O         -1.75030        1.12505       -1.99552
H         -2.37036        1.81238       -1.70499
H         -0.86081        1.53508       -2.04552
O         -1.33366        4.19907        0.44429
H         -0.59706        4.42704       -0.14669
H         -0.91866        3.88640        1.26582
O          1.08698       -0.71236       -3.04828
H          1.69348       -1.02915       -2.35869
H          1.08976        0.24876       -2.95612
O         -1.43988       -4.35021        0.26118
H         -1.88706       -4.10555        1.08386
H         -2.01278       -4.01870       -0.44898
O          0.06875        0.60292        2.23640
H         -0.55450        0.35605        1.51910
H          0.08112       -0.20515        2.79427
O          2.06426        0.95648        0.32923
H          1.46331        0.72591        1.06274
H          2.39545        0.10905       -0.03476
O         -1.31771       -0.43879        0.19693
H         -1.45292        0.08658       -0.61951
H         -2.18102       -0.85327        0.38350
O         -0.07322       -1.93625        3.17991
H         -0.98217       -2.26783        3.13636
H          0.32742       -2.27720        2.36192
O          2.38511        3.63756        1.00852
H          1.72167        3.58714        1.71518
H          2.55256        2.70907        0.77452
O         -3.79681       -1.59480        0.51890
H         -4.32445       -0.78097        0.40298
H         -3.77158       -2.08626       -0.32427
O          1.04236        4.63345       -1.04363
H          1.37364        5.45819       -1.39940
H          1.64095        4.37036       -0.29859
O          0.53525       -2.48704        0.47587
H         -0.00425       -3.28793        0.31058
H         -0.07327       -1.75590        0.25359
O          0.10785        3.21449        2.65862
H          0.05205        2.22814        2.64080
H         -0.03858        3.48863        3.56435
C          5.63372       -0.80781        1.05578
H          6.33199       -0.07239        1.46257
H          5.48944       -1.59660        1.79727
H          4.67628       -0.31103        0.88563
C          6.18389       -1.38239       -0.23111
H          7.15544       -1.85751       -0.05349
H          6.31858       -0.59104       -0.97806
O          5.26000       -2.35889       -0.72076
H          5.60291       -2.74977       -1.52548
