69
C2H5OH+ASW1_dO2
O         -0.82095        2.05455       -3.09946
H         -0.45169        1.16034       -3.02598
H         -1.76259        1.91645       -2.88229
O          1.80600       -2.30432       -1.57094
H          2.28413       -2.90307       -2.14584
H          1.24878       -2.87262       -0.98148
O          1.41363        3.37282        2.28394
H          1.83479        2.91682        1.52457
H          2.11688        3.79169        2.78070
O         -2.62819       -1.60839       -1.68584
H         -2.84780       -1.37975       -0.76025
H         -2.66940       -2.57694       -1.72146
O          3.33632       -0.03482       -0.81839
H          2.80112       -0.81975       -1.01627
H          4.26540       -0.30024       -0.89300
O         -4.41283        1.57708        0.16084
H         -3.65136        2.11810        0.48358
H         -5.21759        2.04343        0.38715
O          0.76863        3.74739       -1.86776
H          0.12296        3.13506       -2.31820
H          1.07148        4.35318       -2.54511
O         -0.20724       -0.52378       -2.26750
H          0.51436       -1.17161       -2.20706
H         -1.04900       -1.01123       -2.14998
O          0.18886       -3.83197       -0.12179
H         -0.65070       -4.07265       -0.54647
H         -0.03938       -3.61633        0.79751
O         -3.35515        1.08840       -2.46276
H         -3.82227        1.30128       -1.64159
H         -3.25657        0.12715       -2.44998
O         -0.45126        4.68913        0.51184
H          0.20469        4.44759        1.18179
H         -0.03081        4.48984       -0.34097
O         -1.01727       -0.50701        2.28119
H         -0.58782       -0.14972        1.47344
H         -0.94953        0.24491        2.90805
O         -3.38226       -0.90223        0.88532
H         -2.63976       -0.65888        1.47122
H         -3.90855       -0.09522        0.74635
O         -0.20482        0.81114        0.09954
H         -0.21892        0.36119       -0.77252
H          0.63723        1.30521        0.12541
O         -0.84195        1.95680        3.41330
H         -0.00128        2.38387        3.19023
H         -1.45373        2.30632        2.74488
O         -3.30944       -3.65755        1.34742
H         -2.50039       -3.59753        1.88034
H         -3.60882       -2.73703        1.26542
O          2.14976        2.22696       -0.03397
H          2.68829        1.46933       -0.35209
H          1.87906        2.76955       -0.79717
O         -2.44759       -4.33681       -1.06072
H         -2.80181       -5.15200       -1.41641
H         -2.86016       -4.19825       -0.17023
O         -2.11687        2.60144        0.95557
H         -1.69770        3.46700        0.75788
H         -1.50546        1.95491        0.54778
O         -0.74800       -3.13897        2.45500
H         -0.77252       -2.15376        2.51509
H         -0.36428       -3.46128        3.27095
C          5.71745       -1.84723        1.19879
H          6.15612       -2.01391        2.18546
H          5.55716       -2.81694        0.72237
H          4.74886       -1.35885        1.32697
C          6.64065       -0.99035        0.36068
H          7.61164       -1.48253        0.23365
H          6.80686       -0.02050        0.84456
O          6.03143       -0.79659       -0.91851
H          6.61507       -0.28318       -1.47842
