69
C2H5OH+ASW1_dH5
O         -1.32277       -0.00222       -2.93799
H         -0.62525        0.65035       -2.77403
H         -0.82550       -0.83977       -2.97395
O          1.89093        3.62032       -0.68058
H          2.20159        4.39346       -1.15383
H          2.69718        3.18825       -0.29559
O         -2.72635        0.05841        2.94365
H         -2.53195        0.80838        2.34237
H         -3.31099        0.39415        3.62369
O          2.90240       -0.54903       -2.06685
H          2.88862       -1.07232       -1.24039
H          3.80366       -0.19535       -2.12545
O         -0.55479        3.97995        0.61585
H          0.31416        3.83056        0.19989
H         -0.41415        4.63769        1.29643
O          0.85807       -3.85063       -0.75678
H          0.10921       -3.48194       -0.22893
H          0.76576       -4.80334       -0.76673
O         -3.21308        0.46223       -1.12458
H         -2.55102        0.25291       -1.83085
H         -4.08534        0.57496       -1.53762
O          0.92667        1.30794       -1.92868
H          1.25867        2.17862       -1.65746
H          1.70466        0.72648       -2.05824
O          4.06872        2.40790        0.20316
H          4.55718        1.87382       -0.44495
H          4.07209        1.88647        1.02320
O          0.59443       -2.04908       -2.98791
H          0.67214       -2.75212       -2.32712
H          1.44392       -1.58948       -2.96204
O         -3.45944       -1.61811        0.70446
H         -3.39565       -1.15111        1.55023
H         -3.40453       -0.91517        0.02904
O          1.76371       -0.58490        2.19910
H          1.17915       -0.14856        1.54126
H          1.12024       -0.97693        2.82741
O          2.84975       -2.15862        0.18922
H          2.42156       -1.74964        0.96566
H          2.28293       -2.90135       -0.08433
O         -0.01776        0.15887        0.34710
H          0.28743        0.54193       -0.50348
H         -0.76041        0.72401        0.63553
O         -0.44140       -1.67314        3.36148
H         -1.17493       -1.04134        3.39728
H         -0.62160       -2.18014        2.55286
O          5.40696       -1.11985        0.62041
H          5.11115       -0.56794        1.36191
H          4.66611       -1.72899        0.46643
O         -2.15101        1.77966        0.95715
H         -1.70703        2.63902        0.82547
H         -2.62007        1.52307        0.13523
O          5.41659        0.53318       -1.44585
H          6.25590        0.63707       -1.89458
H          5.55223       -0.11797       -0.71104
O         -0.86968       -2.44049        0.65920
H         -1.84526       -2.36105        0.59662
H         -0.55348       -1.54281        0.42866
O          4.09866        0.65293        2.41396
H          3.21129        0.22445        2.47629
H          4.35281        0.90622        3.30177
C         -6.16382        0.76880        0.60835
H         -6.54459        0.33663        1.53707
H         -6.66258        1.72515        0.43595
H         -5.09394        0.95123        0.73140
C         -6.41835       -0.18428       -0.53885
H         -7.49263       -0.37069       -0.64824
H         -5.91012       -1.13731       -0.35565
O         -5.91482        0.41565       -1.74005
H         -6.15208       -0.13447       -2.48790
