69
C2H5OH+ASW1_dO7
O          2.77891        0.03353        3.11804
H          2.18325        0.75921        2.87570
H          2.17668       -0.73286        3.16950
O          0.24884        3.90198        0.46808
H         -0.01815        4.73930        0.85024
H         -0.55583        3.53376        0.02108
O          4.65171       -0.41514       -2.52280
H          4.52408        0.38735       -1.97683
H          5.32880       -0.20847       -3.16781
O         -1.38784       -0.02965        1.97676
H         -1.35728       -0.59658        1.18055
H         -2.24710        0.41699        1.93366
O          2.86181        3.86073       -0.52214
H          1.93557        3.85259       -0.21860
H          2.91316        4.52757       -1.20655
O          0.29924       -3.62667        1.01488
H          1.13517       -3.37967        0.54957
H          0.27095       -4.58161        1.07698
O          4.94598        0.16014        1.63836
H          4.13015        0.05701        2.20268
H          5.66819        0.32353        2.24624
O          0.79502        1.58121        1.92650
H          0.59785        2.46996        1.59013
H         -0.05672        1.10571        2.01826
O         -1.96211        2.86968       -0.56501
H         -2.57374        2.44625        0.05862
H         -1.97348        2.31037       -1.35896
O          0.63309       -1.74117        3.15778
H          0.51034       -2.47363        2.53653
H         -0.15169       -1.18845        3.04909
O          4.96908       -2.04430       -0.15240
H          5.05065       -1.60178       -1.00937
H          5.07862       -1.34213        0.50936
O          0.09159       -0.45772       -2.18032
H          0.66574       -0.03994       -1.50185
H          0.73489       -0.97185       -2.71603
O         -1.33644       -1.75410       -0.19797
H         -0.78307       -1.45306       -0.94526
H         -0.91192       -2.55290        0.16474
O          1.76829        0.20149       -0.20546
H          1.43743        0.67110        0.58967
H          2.61525        0.63275       -0.42955
O          2.21932       -1.88778       -3.05013
H          3.02801       -1.35420       -3.05172
H          2.26297       -2.35806       -2.20141
O         -3.67182       -0.52948       -0.96032
H         -3.25140       -0.03801       -1.68842
H         -3.00146       -1.18225       -0.68523
O          4.16914        1.46312       -0.63907
H          3.83189        2.37798       -0.57896
H          4.56928        1.20936        0.21459
O         -3.69476        1.27040        1.03294
H         -4.56014        1.49272        1.37881
H         -3.83392        0.59616        0.32823
O          2.30532       -2.50507       -0.27784
H          3.27573       -2.53360       -0.13124
H          2.08156       -1.56416       -0.13091
O         -2.06692        0.98531       -2.67501
H         -1.22440        0.46956       -2.64329
H         -2.23259        1.20505       -3.59250
C         -8.26718       -0.51121        0.46538
H         -8.56714        0.06841        1.34302
H         -8.47638       -1.56625        0.65557
H         -8.87060       -0.19093       -0.38712
C         -6.79391       -0.31578        0.16900
H         -6.19792       -0.63014        1.04052
H         -6.59419        0.75521       -0.00357
O         -6.45496       -1.07423       -0.96771
H         -5.50043       -1.00392       -1.10188
