69
C2H5OH+ASW1_dO6
O         -1.79802        3.03577        2.11478
H         -2.39601        2.59255        1.49295
H         -1.57945        2.32483        2.74683
O         -3.93357        0.80172       -2.20684
H         -4.83954        0.93680       -2.48845
H         -3.79272       -0.18059       -2.18803
O          2.69114        2.49369       -1.74401
H          1.77204        2.79132       -1.90643
H          3.23949        2.88487       -2.42505
O         -2.92070       -1.12158        1.76077
H         -2.05927       -1.55347        1.59190
H         -3.58679       -1.77672        1.49897
O         -2.13843        2.71955       -3.14650
H         -2.73278        2.01392       -2.83085
H         -2.13740        2.66079       -4.10165
O          0.83039       -0.88792        3.42609
H          1.31552       -0.25974        2.84070
H          1.41558       -1.12811        4.14473
O         -0.04666        4.45898        0.77376
H         -0.67660        3.91510        1.32405
H         -0.20163        5.37217        1.01849
O         -2.98271        1.21009        0.38681
H         -3.47096        1.14529       -0.44967
H         -3.09981        0.36137        0.86384
O         -3.63712       -1.81640       -1.99847
H         -3.99669       -2.23029       -1.19640
H         -2.79549       -2.27011       -2.17100
O         -1.57430        0.68212        3.58111
H         -0.76797        0.15401        3.67031
H         -2.22441        0.08248        3.19169
O          2.50170        3.25052        1.04513
H          2.76292        3.13185        0.12102
H          1.68404        3.77427        1.01407
O          0.49960       -1.47366       -1.02673
H          0.08398       -0.59496       -0.88250
H          1.44373       -1.25046       -1.13330
O         -0.45529       -2.34417        1.43536
H          0.03077       -2.07321        0.63400
H          0.05910       -2.02397        2.19719
O         -0.36152        0.93388       -0.24758
H         -1.30045        1.04778        0.01642
H         -0.14805        1.71756       -0.78994
O          2.93195       -0.18932       -0.84166
H          2.91033        0.67086       -1.29351
H          2.70499        0.03134        0.08105
O         -1.97464       -4.37521        0.24837
H         -1.65303       -4.16269       -0.64226
H         -1.37671       -3.89039        0.84012
O          0.09954        3.23588       -1.67097
H         -0.69495        3.18762       -2.23807
H         -0.06647        3.85271       -0.93273
O         -4.31122       -3.14614        0.41617
H         -5.06885       -3.70383        0.59418
H         -3.51113       -3.73051        0.39349
O          1.73287        0.70422        1.51181
H          2.08002        1.62303        1.54988
H          0.90068        0.79752        1.00387
O         -1.17199       -3.18068       -2.20189
H         -0.46404       -2.57091       -1.88889
H         -0.84696       -3.60512       -2.99663
C          7.30672       -2.42366       -0.23851
H          7.80507       -2.56893        0.72414
H          7.94681       -1.80563       -0.87287
H          7.18737       -3.39770       -0.71927
C          5.95675       -1.76163       -0.04813
H          6.08757       -0.78875        0.44884
H          5.32988       -2.38255        0.60997
O          5.34879       -1.60040       -1.31083
H          4.50895       -1.13718       -1.18269
