69
C2H5OH+ASW1_dH7
O         -3.53066        1.15340        2.18492
H         -2.63170        1.01035        2.52028
H         -3.41416        1.90903        1.57773
O          1.28587       -0.83980        3.24467
H          1.66630       -0.82641        4.12396
H          1.96718       -0.44180        2.63942
O         -2.85116       -3.38691       -1.62503
H         -2.61522       -3.34200       -0.67611
H         -3.03265       -4.30628       -1.82216
O          0.22233        2.95699        1.04576
H          0.30258        2.70984        0.10167
H          1.11268        3.23672        1.31135
O         -0.32377       -3.05736        2.72618
H          0.25037       -2.28074        2.86171
H          0.26413       -3.80956        2.65872
O         -2.31040        3.02535       -2.16805
H         -2.66326        2.10381       -2.21696
H         -2.74159        3.53764       -2.85208
O         -4.55554       -1.17119        1.51619
H         -4.19452       -0.26531        1.72714
H         -5.30868       -1.29543        2.09502
O         -0.78062        0.84097        2.40140
H         -0.09246        0.32684        2.85309
H         -0.35197        1.63798        2.02294
O          3.04470        0.35112        1.67985
H          3.06773        1.32078        1.72932
H          3.05820        0.14626        0.72398
O         -2.62748        3.30674        0.66973
H         -2.59462        3.32101       -0.29810
H         -1.71156        3.43487        0.95052
O         -4.82376       -1.29693       -1.31115
H         -4.32136       -2.09788       -1.51909
H         -4.86285       -1.26634       -0.34138
O          0.60321       -0.36673       -1.85312
H          0.03576       -0.48539       -1.06302
H          0.11037       -0.85715       -2.54257
O          0.35614        2.38304       -1.65531
H          0.38949        1.43016       -1.87136
H         -0.49247        2.71677       -1.99447
O         -1.28517       -0.45519        0.06048
H         -1.14140        0.03050        0.90007
H         -1.65742       -1.31839        0.32077
O         -1.36303       -1.56421       -3.32940
H         -1.75730       -2.30253       -2.84263
H         -1.95895       -0.82345       -3.13210
O          3.10920        2.73493       -1.24476
H          3.26172        1.77380       -1.29519
H          2.20399        2.84452       -1.57753
O         -2.41535       -2.79453        0.97781
H         -1.75487       -2.96748        1.67652
H         -3.19713       -2.36158        1.37031
O          2.99890        3.17565        1.35526
H          3.60028        3.84255        1.68684
H          3.13398        3.11659        0.37319
O         -2.86869        0.45206       -2.00051
H         -3.71237       -0.02085       -1.83606
H         -2.33004        0.23324       -1.21324
O          3.15010       -0.04398       -1.04525
H          2.28987       -0.31441       -1.42926
H          3.83188       -0.66354       -1.35558
C          5.53434       -2.19675        0.55071
H          6.27069       -2.46800        1.31113
H          4.78238       -2.98775        0.50117
H          5.04552       -1.27154        0.86326
C          6.21766       -2.03555       -0.78945
H          6.73938       -2.95913       -1.06569
H          6.95328       -1.22372       -0.74955
O          5.22174       -1.74185       -1.77282
H          5.63649       -1.62523       -2.62838
