69
C2H5OH+ASW1_dO1
O          2.19384       -1.71185       -0.61235
H          1.51272       -1.97609        0.02848
H          1.72146       -1.76202       -1.46865
O         -1.43282       -1.80340        3.27426
H         -1.54642       -2.53914        3.87765
H         -2.32898       -1.61864        2.88992
O          1.40866        4.09298        1.17175
H          1.47845        3.28855        1.72604
H          1.69691        4.82807        1.71371
O         -1.96578       -2.26553       -1.18679
H         -2.26016       -1.37837       -1.47844
H         -2.77959       -2.73312       -0.94049
O          0.39341        0.12429        4.15430
H         -0.27182       -0.51279        3.83606
H          0.05668        0.47244        4.97955
O         -0.53276        0.49012       -3.83551
H         -0.02819        1.12922       -3.27532
H         -0.45522        0.77972       -4.74481
O          3.38878        0.51827        0.48200
H          2.81150       -0.11540        0.00835
H          4.20603       -0.00054        0.56396
O         -0.15557       -1.94890        0.80154
H         -0.53190       -2.07045        1.68848
H         -0.85299       -2.17382        0.14945
O         -3.79187       -1.43914        2.13720
H         -4.02821       -2.05185        1.42144
H         -4.11107       -0.56756        1.84886
O          0.45139       -1.95711       -2.72836
H          0.16257       -1.17134       -3.21700
H         -0.35626       -2.31767       -2.33688
O          2.91636        2.87364       -0.97898
H          2.55611        3.45274       -0.29218
H          3.26761        2.10377       -0.50017
O         -2.44919        1.96383       -0.03511
H         -1.65968        1.47290        0.27951
H         -2.08703        2.86032       -0.20753
O         -2.73771        0.20403       -2.15611
H         -2.61822        0.93892       -1.52377
H         -2.11272        0.35803       -2.88629
O         -0.10015        0.74223        0.39266
H         -0.08498       -0.22935        0.52396
H          0.48771        1.11514        1.07871
O         -0.85990        4.08014       -0.61763
H         -0.18825        4.21743        0.06725
H         -0.39244        3.55881       -1.29031
O         -5.26707       -0.59206       -1.25429
H         -5.25182        0.03006       -0.50944
H         -4.53511       -0.30300       -1.82308
O          1.68161        1.63832        2.27058
H          1.35184        1.11728        3.02731
H          2.43793        1.17376        1.85993
O         -4.50696       -2.89317       -0.19435
H         -5.12721       -3.61786       -0.27633
H         -4.91027       -2.10551       -0.64101
O          0.55210        2.01013       -1.96976
H          1.47383        2.31279       -1.81287
H          0.35088        1.46477       -1.18330
O         -4.67750        0.99620        1.02310
H         -3.88414        1.48561        0.69755
H         -5.23330        1.62915        1.47863
C          7.22209       -1.77292       -0.07307
H          8.06162       -2.20047       -0.62733
H          7.35599       -2.00029        0.98723
H          7.24423       -0.68735       -0.19890
C          5.91122       -2.34180       -0.57438
H          5.91605       -3.43563       -0.48063
H          5.77402       -2.09869       -1.63610
O          4.85529       -1.79567        0.19734
H          3.99855       -2.05285       -0.18026
