69
C2H5OH+ASW1_dH3
O         -2.45282       -1.65768       -2.61221
H         -1.59603       -1.22809       -2.76957
H         -2.20456       -2.45713       -2.10829
O          1.64738        1.62567       -2.72185
H          2.10952        1.95339       -3.49452
H          2.34426        1.33555       -2.08367
O         -2.13993        2.93165        1.75860
H         -2.50059        2.64516        0.89155
H         -2.72188        3.62039        2.08311
O          1.49803       -2.68536       -1.27373
H          1.44677       -2.60408       -0.29995
H          2.44678       -2.68472       -1.47612
O         -0.61692        3.25165       -2.00238
H          0.12351        2.68779       -2.27444
H         -0.30017        3.69966       -1.19675
O         -1.25096       -3.74605        1.60947
H         -1.78322       -2.92637        1.74572
H         -1.63663       -4.43251        2.15425
O         -4.23011        0.05114       -1.78834
H         -3.56243       -0.63180       -2.09459
H         -4.87187        0.12636       -2.49604
O          0.10617       -0.64431       -2.39107
H          0.65864        0.09444       -2.69803
H          0.69983       -1.36922       -2.10354
O          3.50091        0.62983       -1.08980
H          3.79148       -0.27680       -1.28161
H          3.48350        0.69686       -0.12130
O         -1.20580       -3.73374       -1.26777
H         -1.26129       -3.85124       -0.30814
H         -0.26548       -3.60791       -1.45279
O         -4.91427       -0.88975        0.71530
H         -5.53188       -0.30034        1.14780
H         -4.78970       -0.54688       -0.19037
O          0.82554        0.04888        2.11616
H          0.32030        0.19834        1.28833
H          0.17388        0.30519        2.80536
O          1.27387       -2.59279        1.48514
H          1.05793       -1.70660        1.83562
H          0.49559       -3.14772        1.66583
O         -0.85009        0.13254        0.01356
H         -0.51714       -0.18414       -0.85528
H         -1.45521        0.86911       -0.20119
O         -1.42661        0.70926        3.45052
H         -1.72694        1.49337        2.96587
H         -1.92420       -0.02829        3.06154
O          4.04448       -2.19654        1.38249
H          3.97209       -1.26633        1.64833
H          3.16905       -2.57060        1.57327
O         -2.64561        2.06268       -0.72919
H         -2.04017        2.50021       -1.37187
H         -3.28295        1.49935       -1.20421
O          4.23851       -2.11266       -1.25898
H          5.03624       -2.48609       -1.63429
H          4.29293       -2.22388       -0.27645
O         -2.40765       -1.33965        1.72787
H         -3.33522       -1.24168        1.43300
H         -1.87355       -0.90254        1.03320
O          3.39985        0.55481        1.73016
H          2.44861        0.47938        1.98168
H          3.79830        1.20173        2.31318
C          2.55338        3.80498        0.04200
H          3.44240        3.17472        0.12167
H          2.75761        4.77070        0.50989
H          2.35446        3.97031       -1.01988
C          1.36831        3.13372        0.70163
H          1.56208        2.96236        1.76705
H          1.18166        2.15602        0.23808
O          0.22913        3.97246        0.54662
H         -0.50132        3.62601        1.08215
