65
CH2SH+ASW1_dO3
O          2.09404       -0.98978       -3.11967
H          1.16126       -1.10454       -2.87981
H          2.18600       -0.01917       -3.16135
O         -2.36833       -2.01589       -0.45289
H         -3.19067       -2.37652       -0.80995
H         -2.64925       -1.21523        0.04286
O          3.72891       -2.01320        2.52539
H          3.08194       -2.49586        1.97086
H          4.06945       -2.64023        3.16414
O         -0.88979        1.93919       -1.93264
H         -0.47001        2.32997       -1.13972
H         -1.82303        2.19431       -1.87458
O         -0.49569       -3.86184        0.45599
H         -1.15998       -3.20376        0.17815
H         -0.94584       -4.46575        1.04597
O          2.85202        3.34048       -0.99010
H          3.27573        2.58038       -0.52207
H          3.50248        4.03949       -1.05868
O          3.56397       -2.58944       -1.64212
H          3.04889       -1.94736       -2.20539
H          3.97320       -3.20523       -2.25128
O         -0.40384       -0.73346       -1.93926
H         -1.15681       -1.24248       -1.59640
H         -0.69098        0.19985       -2.01469
O         -3.34209        0.26078        0.68430
H         -3.45308        0.99028        0.04832
H         -2.94167        0.66772        1.47399
O          1.75579        1.77669       -3.13116
H          2.18084        2.38335       -2.50736
H          0.80795        1.92116       -3.01421
O          5.10100       -1.04113        0.17261
H          4.84404       -1.42293        1.02426
H          4.69358       -1.61433       -0.49731
O          0.48307        1.19626        2.19313
H          0.60477        0.50577        1.50566
H          1.30196        1.10833        2.72877
O          0.36240        3.14443        0.22301
H          0.54394        2.54280        0.97051
H          1.22560        3.41622       -0.13653
O          1.24087       -0.43129        0.20797
H          0.68799       -0.53144       -0.59606
H          1.54515       -1.33272        0.42849
O          3.00071        0.73006        3.07540
H          3.21022       -0.21592        3.06941
H          3.36583        1.04588        2.23257
O         -2.22818        3.84666        0.97519
H         -2.24049        3.23498        1.72804
H         -1.29327        3.88440        0.71234
O          2.08743       -3.01116        0.62659
H          1.21430       -3.44544        0.55954
H          2.55560       -3.09762       -0.22561
O         -3.46529        2.53940       -0.95651
H         -4.25157        2.95807       -1.30807
H         -3.09340        3.14277       -0.26210
O          3.50627        1.14075        0.31057
H          4.22328        0.48699        0.15993
H          2.69121        0.62160        0.15730
O         -2.06339        1.62850        2.75642
H         -1.09749        1.42925        2.68567
H         -2.29472        1.58148        3.68458
C         -5.44010       -1.94911       -1.17084
H         -5.94303       -2.68223       -1.78730
H         -5.01273       -1.06986       -1.63726
S         -5.92016       -1.88752        0.48441
H         -5.08334       -0.88960        0.85115
