65
CH2SH+ASW1_dH4
O         -1.46055        0.29295       -2.90356
H         -0.53609        0.58738       -2.88932
H         -1.38659       -0.65708       -2.68033
O          3.17851        2.58035       -1.69778
H          3.79134        2.94097       -2.34013
H          3.70946        1.97197       -1.12060
O         -2.33990        2.81033        2.40667
H         -1.87746        3.16863        1.62169
H         -2.68140        3.56269        2.89144
O          2.03417       -1.80542       -1.62091
H          1.83646       -1.96892       -0.67659
H          2.99000       -1.94911       -1.70643
O          1.17335        4.35462       -0.89814
H          1.87412        3.71644       -1.12723
H          1.61566        5.10061       -0.49352
O         -1.18547       -3.18811        0.42670
H         -1.60482       -2.36220        0.76431
H         -1.79738       -3.90307        0.60507
O         -2.94972        2.03590       -1.64979
H         -2.40755        1.33845       -2.11785
H         -3.57603        2.36126       -2.29810
O          1.19718        0.69294       -2.23607
H          1.91801        1.34273       -2.24352
H          1.59614       -0.19484       -2.11287
O          4.58427        0.83280       -0.29879
H          4.72301       -0.03723       -0.70822
H          4.44067        0.65501        0.64571
O         -0.74900       -2.29129       -2.25494
H         -0.97938       -2.66746       -1.39083
H          0.21696       -2.30850       -2.28431
O         -3.86696        0.99428        0.78636
H         -3.55875        1.64177        1.43860
H         -3.65824        1.38226       -0.08185
O          1.39463        0.04444        2.36106
H          1.04653        0.48503        1.55718
H          0.70154        0.23511        3.02840
O          1.41487       -2.40055        1.01422
H          1.28228       -1.62970        1.59712
H          0.55916       -2.85960        0.94592
O          0.05184        0.92459        0.20959
H          0.43578        0.82405       -0.68825
H         -0.37663        1.80092        0.21484
O         -0.95320        0.55993        3.63712
H         -1.33453        1.41454        3.38977
H         -1.38854       -0.05858        3.02752
O          4.19391       -2.59479        1.29389
H          4.25846       -1.77384        1.80741
H          3.24422       -2.79853        1.28488
O         -1.20600        3.36472        0.01010
H         -0.43504        3.83427       -0.36423
H         -1.81275        3.11323       -0.71094
O          4.79726       -1.85941       -1.17277
H          5.55075       -2.29723       -1.56932
H          4.67872       -2.23709       -0.26378
O         -1.81567       -0.76131        1.29758
H         -2.65423       -0.30487        1.09109
H         -1.14552       -0.23543        0.81564
O          4.04495        0.03676        2.35393
H          3.06978        0.11400        2.48653
H          4.46578        0.39421        3.13634
C         -3.91370       -1.81843       -1.26872
H         -3.73824       -2.60670       -1.98538
H         -3.43271       -0.85750       -1.36946
H         -4.98855       -0.88717        0.55926
S         -5.09125       -2.09188       -0.03683
