65
CH2SH+ASW1_dO2
O         -0.66936       -1.77896       -2.75721
H         -1.14494       -1.07632       -2.28853
H          0.11392       -1.31281       -3.10850
O         -2.79606        1.30634        0.98599
H         -3.65240        1.62035        0.67657
H         -2.25132        2.09808        1.23095
O          1.42795       -3.74817        2.45069
H          0.51669       -3.48503        2.21189
H          1.35518       -4.38970        3.15808
O          0.47756        2.29425       -1.93639
H          1.28406        2.17914       -1.39410
H          0.19577        3.20946       -1.77887
O         -2.99850       -1.26932        1.87830
H         -2.84274       -0.32890        1.65371
H         -3.38103       -1.26722        2.75684
O          3.85749       -0.00445       -2.22659
H          3.68209       -0.78588       -1.64867
H          4.71459       -0.12995       -2.63419
O         -0.58785       -3.91901       -1.24039
H         -0.56863       -3.12443       -1.84344
H         -1.05927       -4.60307       -1.71754
O         -1.32062        0.41906       -1.18114
H         -1.90030        0.76745       -0.48089
H         -0.76840        1.16724       -1.49455
O         -1.24241        3.39674        1.45053
H         -0.98112        3.91088        0.66902
H         -0.43182        3.29619        1.97654
O          1.29899        0.02185       -3.52790
H          2.21430        0.00312       -3.21179
H          0.96355        0.89031       -3.26860
O          2.06983       -4.33493       -0.31021
H          1.93924       -4.33541        0.64884
H          1.17644       -4.31054       -0.68950
O          2.12045        0.74800        1.87003
H          1.41288        0.24899        1.40937
H          2.67931        0.02902        2.23558
O          2.83599        1.94868       -0.53012
H          2.74235        1.46836        0.31473
H          3.36682        1.38309       -1.11835
O          0.56972       -0.81960        0.33998
H         -0.07921       -0.40410       -0.26622
H          0.09987       -1.57412        0.74220
O          3.38980       -1.61238        2.32444
H          2.75620       -2.31095        2.54489
H          3.53561       -1.73421        1.37208
O          2.25410        4.50214        0.45660
H          2.02935        4.16583        1.33878
H          2.69377        3.75379        0.02104
O         -0.89087       -2.95092        1.29481
H         -1.70828       -2.46581        1.51412
H         -1.00022       -3.38432        0.42602
O         -0.08531        4.77197       -0.75232
H         -0.29645        5.65065       -1.06876
H          0.81378        4.81406       -0.33784
O          3.00977       -1.79960       -0.48637
H          2.82228       -2.75743       -0.58749
H          2.12747       -1.41747       -0.30576
O          1.26465        3.11377        2.73096
H          1.60940        2.20678        2.55354
H          1.41476        3.29577        3.65909
C         -5.02494        0.60710       -1.13889
H         -5.66203        1.27367       -1.70446
H         -4.04226        0.35749       -1.51879
S         -5.84150       -0.46396       -0.05764
H         -4.75801       -1.09511        0.43915
