65
CH2SH+ASW1_dH3
O          1.71349       -2.31983        2.60835
H          1.00447       -1.68312        2.78985
H          1.25915       -3.00858        2.08658
O         -1.33347        1.98908        2.87745
H         -1.76097        2.41119        3.62391
H         -2.01868        1.91239        2.16889
O          3.84335        1.32821       -1.56983
H          3.54226        1.52989       -0.65920
H          4.49194        1.99462       -1.79930
O         -2.31341       -2.11080        1.14778
H         -2.17789       -2.01060        0.18414
H         -3.23441       -1.84578        1.29904
O          1.28352        2.98681        2.39048
H          0.41463        2.59588        2.58614
H          1.07866        3.71663        1.79921
O          0.04550       -3.93690       -1.63021
H          0.80399       -3.30647       -1.67414
H          0.24432       -4.67103       -2.21167
O          3.89258       -1.02292        1.94710
H          3.08765       -1.56676        2.17402
H          4.54171       -1.20748        2.62689
O         -0.47026       -0.61121        2.44235
H         -0.82122        0.21302        2.81483
H         -1.22363       -1.12779        2.08470
O         -3.18879        1.56832        1.02371
H         -3.76351        0.79914        1.17211
H         -3.15078        1.67763        0.05816
O         -0.07125       -3.94584        1.23406
H         -0.03230       -4.09228        0.27768
H         -0.93446       -3.53970        1.38787
O          4.32637       -1.42130       -0.81350
H          4.37965       -0.51521       -1.14972
H          4.32275       -1.33844        0.15431
O         -0.70975        0.43054       -2.12761
H         -0.24826        0.38309       -1.26231
H          0.03310        0.52417       -2.75814
O         -1.94040       -1.99572       -1.59954
H         -1.45156       -1.22011       -1.93350
H         -1.37580       -2.77048       -1.76897
O          0.70268        0.05485        0.10475
H          0.28288       -0.19847        0.95685
H          1.50783        0.55474        0.34821
O          1.75628        0.29251       -3.28222
H          2.47647        0.77306       -2.84851
H          1.82915       -0.60151       -2.90890
O         -4.48985       -0.82217       -1.59259
H         -4.15743        0.05764       -1.82952
H         -3.74217       -1.41801       -1.76247
O          2.93929        1.35282        0.97269
H          2.46870        1.96171        1.57924
H          3.35339        0.63704        1.49196
O         -4.76953       -0.78060        1.03825
H         -5.65722       -0.91457        1.37091
H         -4.81034       -0.83200        0.04939
O          1.78009       -1.94021       -1.53821
H          2.73321       -1.94029       -1.29633
H          1.36835       -1.35360       -0.87549
O         -3.06222        1.62610       -1.78475
H         -2.16635        1.29633       -2.02836
H         -3.17768        2.46522       -2.23294
C          1.02567        3.46189       -1.33151
H          1.47974        4.32537       -1.79636
H          1.30145        2.46168       -1.63141
H         -0.65829        2.47060       -0.07338
S         -0.44190        3.74100       -0.46146
