65
CH2SH+ASW1_dH7
O         -2.79202        0.96855        2.76873
H         -1.85659        0.76824        2.92895
H         -2.74737        1.81368        2.28414
O          2.02045       -1.22826        2.63583
H          2.61194       -1.44636        3.35752
H          2.56735       -0.77675        1.95008
O         -2.98634       -2.87691       -1.81613
H         -2.58965       -2.99008       -0.92742
H         -3.25433       -3.74640       -2.11504
O          0.85180        2.86035        1.30341
H          0.73903        2.77311        0.33565
H          1.79455        3.04625        1.43285
O          0.39459       -3.36130        1.70864
H          0.89429       -2.62473        2.09899
H          0.93896       -3.62334        0.95568
O         -2.20547        3.53648       -1.36222
H         -2.60968        2.64346       -1.48376
H         -2.72146        4.16114       -1.87217
O         -3.98668       -1.22151        1.93327
H         -3.57037       -0.36255        2.22023
H         -4.63536       -1.43707        2.60456
O         -0.06024        0.60086        2.48963
H          0.66143        0.00588        2.74746
H          0.34619        1.43442        2.17188
O          3.49662        0.09347        0.83376
H          3.66248        1.01818        1.08768
H          3.35367        0.11944       -0.13092
O         -2.02164        3.33144        1.49339
H         -2.14885        3.52358        0.55293
H         -1.06943        3.40395        1.63655
O         -4.74059       -0.82360       -0.77842
H         -4.34073       -1.58969       -1.21457
H         -4.61602       -0.97753        0.17230
O          0.51975        0.05492       -2.11236
H          0.09670       -0.14718       -1.24862
H         -0.12756       -0.30571       -2.75771
O          0.45626        2.75176       -1.43904
H          0.38829        1.85324       -1.81383
H         -0.41614        3.16836       -1.55719
O         -0.95516       -0.29047        0.08131
H         -0.66796        0.04046        0.95919
H         -1.33246       -1.17721        0.24392
O         -1.71018       -0.81038       -3.37212
H         -2.06764       -1.62067       -2.97892
H         -2.22933       -0.10655       -2.94945
O          3.23844        2.98418       -1.52476
H          3.36669        2.07982       -1.84941
H          2.28714        3.14612       -1.63889
O         -2.05033       -2.72276        0.70633
H         -1.26843       -3.05230        1.19648
H         -2.71923       -2.38099        1.32858
O          3.66762        2.88579        1.08536
H          4.36128        3.45833        1.41397
H          3.60953        3.02447        0.10549
O         -2.84988        0.97897       -1.48231
H         -3.67392        0.49652       -1.25332
H         -2.19717        0.62769       -0.84466
O          3.14792        0.17036       -1.91880
H          2.19138        0.02816       -2.11831
H          3.64274       -0.47752       -2.42300
C          2.26095       -3.02672       -0.82289
H          1.88946       -3.79329       -1.49041
H          1.76397       -2.06656       -0.78020
H          4.01885       -2.01507        0.32732
S          3.91429       -3.17576       -0.34970
