66
CH3SH+ASW1_dH3
O          1.67289       -2.58299        2.50460
H          0.94165       -1.99004        2.73901
H          1.25250       -3.20717        1.88321
O         -1.48644        1.61724        3.03928
H         -1.90314        1.95462        3.83335
H         -2.18284        1.61307        2.33694
O          3.93441        1.41260       -1.31152
H          3.61372        1.54034       -0.39426
H          4.61833        2.06575       -1.46297
O         -2.33558       -2.27185        0.92705
H         -2.17173       -2.06587       -0.01477
H         -3.26598       -2.04097        1.07578
O          1.02085        2.79269        2.41531
H          0.20385        2.34148        2.68775
H          0.71181        3.45578        1.78373
O          0.10398       -3.79656       -1.98123
H          0.88284       -3.19007       -1.96930
H          0.28069       -4.48603       -2.62147
O          3.81236       -1.14636        2.00776
H          3.01937       -1.73060        2.16680
H          4.45418       -1.38237        2.67877
O         -0.53567       -0.90625        2.42481
H         -0.90154       -0.10038        2.82548
H         -1.27487       -1.38655        1.99612
O         -3.37401        1.41541        1.17744
H         -3.91658        0.61022        1.20974
H         -3.26642        1.61700        0.23388
O         -0.04730       -4.04903        0.87885
H          0.00856       -4.10777       -0.08578
H         -0.92285       -3.67988        1.05475
O          4.37298       -1.39211       -0.76359
H          4.43278       -0.46517       -1.03530
H          4.30666       -1.36944        0.20521
O         -0.62782        0.64806       -1.94592
H         -0.19128        0.47283       -1.08227
H          0.13829        0.76772       -2.54631
O         -1.86106       -1.84587       -1.77497
H         -1.36329       -1.03368       -1.98337
H         -1.28601       -2.59495       -2.01307
O          0.76634       -0.14273        0.18024
H          0.31205       -0.43937        0.99986
H          1.53393        0.38189        0.48010
O          1.82528        0.58698       -3.11510
H          2.53118        1.02073       -2.61322
H          1.91441       -0.34803       -2.86436
O         -4.42626       -0.72221       -1.74438
H         -4.09491        0.18215       -1.85525
H         -3.66038       -1.28456       -1.94555
O          2.88890        1.28805        1.16669
H          2.33393        1.84734        1.75278
H          3.28285        0.55571        1.67799
O         -4.82883       -0.99481        0.86079
H         -5.72406       -1.19539        1.13467
H         -4.82565       -0.93653       -0.12768
O          1.87269       -1.85622       -1.68414
H          2.81486       -1.88811       -1.40784
H          1.43845       -1.36662       -0.95750
O         -3.01651        1.75792       -1.60761
H         -2.11099        1.44918       -1.84435
H         -3.15235        2.59799       -2.04845
H         -1.06877        2.95537       -0.26841
C          1.05965        3.44484       -1.23327
H          1.79740        4.24580       -1.27575
H          1.48765        2.59411       -0.70682
H          0.78683        3.15354       -2.24552
S         -0.37642        4.10640       -0.32635
