66
CH3SH+ASW1_dO3
O          1.52762       -1.59885       -2.93588
H          0.68390       -1.72442       -2.47444
H          1.48416       -0.66321       -3.20923
O         -2.10096       -2.26518        0.85085
H         -2.93237       -2.71849        0.64969
H         -2.39286       -1.38844        1.18997
O          4.35589       -1.07289        2.29614
H          3.67819       -1.72292        2.01794
H          4.88905       -1.49869        2.96814
O         -1.53019        1.28835       -1.79346
H         -1.00933        1.88652       -1.21922
H         -2.45573        1.51161       -1.61071
O          0.10232       -3.72873        1.66165
H         -0.68609       -3.20507        1.42270
H         -0.13925       -4.24949        2.42682
O          2.12661        3.16789       -2.03476
H          2.73396        2.58808       -1.51361
H          2.64624        3.88687       -2.39457
O          3.46008       -2.65870       -1.50070
H          2.76440       -2.21991       -2.06411
H          3.82074       -3.36925       -2.03249
O         -0.70254       -1.25430       -1.31810
H         -1.26033       -1.70537       -0.66080
H         -1.12209       -0.39313       -1.52047
O         -3.15709        0.13147        1.52453
H         -3.48107        0.69145        0.80001
H         -2.70625        0.74219        2.13231
O          0.83793        1.04892       -3.47402
H          1.29645        1.82026       -3.10963
H         -0.07848        1.14199       -3.18351
O          5.11033       -0.59783       -0.45366
H          5.07480       -0.78078        0.49629
H          4.65617       -1.34584       -0.87477
O          0.71296        1.68391        1.98631
H          0.78865        0.85948        1.45958
H          1.62382        1.79622        2.33638
O         -0.03214        3.06570       -0.29581
H          0.36351        2.68379        0.51158
H          0.70501        3.30658       -0.88498
O          1.29353       -0.30231        0.28143
H          0.61584       -0.63269       -0.34499
H          1.74059       -1.10043        0.62433
O          3.39580        1.65447        2.37832
H          3.72309        0.75605        2.53486
H          3.54906        1.78624        1.42833
O         -2.48569        3.76469        0.82765
H         -2.28644        3.34719        1.68092
H         -1.62843        3.79804        0.37111
O          2.51772       -2.62805        1.07251
H          1.71736       -3.14192        1.29999
H          2.82165       -2.88544        0.18149
O         -3.91454        1.98283       -0.49159
H         -4.79592        2.26500       -0.73706
H         -3.48175        2.74420       -0.02386
O          3.31130        1.42438       -0.45186
H          4.06339        0.81292       -0.60829
H          2.55675        0.81896       -0.30363
O         -1.71968        2.06719        2.97433
H         -0.77060        1.91979        2.74473
H         -1.76071        2.21942        3.91889
C         -4.59038       -1.31103       -1.40427
H         -4.41668       -1.97997       -2.24643
H         -3.64854       -0.84070       -1.12625
H         -5.31474       -0.55207       -1.69482
S         -5.23593       -2.33729       -0.04195
H         -5.18605       -1.38545        0.90761
