66
CH3SH+ASW1_dH1
O         -1.16783       -1.94306        2.73191
H         -0.36139       -1.95097        2.19330
H         -1.15901       -1.04510        3.11383
O          2.20714       -1.98417       -1.31647
H          3.01795       -2.45912       -1.08143
H          2.49547       -1.07778       -1.57728
O         -4.41689       -0.99299       -2.18705
H         -3.68528       -1.62755       -2.04195
H         -4.97792       -1.36727       -2.86698
O          1.62468        1.24898        1.73814
H          1.03393        1.88023        1.27797
H          2.52302        1.54034        1.51682
O          0.01957       -3.42297       -2.19148
H          0.80110       -2.89767       -1.93278
H          0.22154       -3.80553       -3.04473
O         -2.10287        2.84822        2.45991
H         -2.71957        2.29653        1.91954
H         -2.62956        3.48470        2.94356
O         -3.14024       -2.95412        1.31178
H         -2.43145       -2.53863        1.87603
H         -3.41871       -3.74383        1.77716
O          0.89673       -1.25964        1.00536
H          1.40557       -1.57968        0.23840
H          1.27583       -0.39782        1.27554
O          3.05165        0.52083       -1.77477
H          3.43424        1.00678       -1.02784
H          2.51167        1.16995       -2.25543
O         -0.59371        0.66338        3.53907
H         -1.12392        1.43889        3.30310
H          0.28987        0.85115        3.19712
O         -4.99208       -0.90214        0.64573
H         -5.01333       -0.96476       -0.32009
H         -4.45938       -1.65951        0.93829
O         -0.93484        1.94111       -1.78914
H         -0.93174        1.05774       -1.36172
H         -1.87341        2.04134       -2.05972
O         -0.07370        3.09323        0.57759
H         -0.50950        2.78553       -0.24086
H         -0.77594        3.21552        1.24091
O         -1.28302       -0.26354       -0.30502
H         -0.53956       -0.61789        0.22586
H         -1.70191       -1.04414       -0.71677
O         -3.63615        1.78762       -1.99469
H         -3.91677        0.89255       -2.23714
H         -3.72542        1.79640       -1.02770
O          2.27018        4.02319       -0.62579
H          2.02079        3.68464       -1.50096
H          1.45066        3.97144       -0.10686
O         -2.40323       -2.56213       -1.30076
H         -1.59124       -2.98601       -1.64400
H         -2.62079       -2.94318       -0.42920
O          3.88870        2.19911        0.38711
H          4.76092        2.51597        0.62277
H          3.38200        2.97492        0.03164
O         -3.32634        1.22958        0.77579
H         -4.02872        0.55712        0.90927
H         -2.55476        0.69488        0.49875
O          1.41037        2.53482       -2.87909
H          0.48353        2.32408       -2.61269
H          1.38923        2.78476       -3.80326
H          4.19973       -3.28950        1.38949
C          4.79498       -1.04933        0.79061
H          5.32057       -0.84774        1.72264
H          5.27168       -0.49883       -0.01960
H          3.75678       -0.73067        0.86736
S          4.90928       -2.81491        0.35132
