66
CH3SH+ASW1_dH6
O         -2.35434       -0.15139       -3.24854
H         -1.72675        0.54156       -2.98979
H         -1.82434       -0.96614       -3.15870
O          0.17746        3.74206       -0.66686
H          0.56070        4.50415       -1.10353
H          0.89057        3.37019       -0.08364
O         -4.90913        0.11552        2.12944
H         -4.64209        0.84554        1.53404
H         -5.64041        0.44000        2.65583
O          1.61943       -0.44614       -1.58874
H          1.45397       -0.93190       -0.75666
H          2.48653       -0.02515       -1.46223
O         -2.51427        4.01429        0.00174
H         -1.56517        3.90056       -0.19232
H         -2.57154        4.72091        0.64448
O         -0.50515       -3.78288       -0.54663
H         -1.35891       -3.42180       -0.20419
H         -0.56558       -4.73807       -0.52927
O         -4.65729        0.29082       -2.06759
H         -3.79403        0.06846       -2.51578
H         -5.28711        0.45052       -2.77154
O         -0.39855        1.32531       -1.94462
H         -0.15733        2.22416       -1.66854
H          0.40865        0.77135       -1.88538
O          2.14827        2.69037        0.73910
H          2.78474        2.15898        0.22867
H          2.01207        2.20279        1.56771
O         -0.39258       -2.09069       -2.86647
H         -0.41666       -2.76512       -2.17217
H          0.41768       -1.59101       -2.70015
O         -5.09992       -1.71181       -0.10573
H         -5.23383       -1.17907        0.69131
H         -5.05940       -1.07235       -0.83565
O         -0.35952       -0.34876        2.36954
H         -0.81139        0.04008        1.58930
H         -1.10458       -0.74893        2.86778
O          1.17130       -1.95457        0.70634
H          0.57268       -1.53237        1.35234
H          0.70636       -2.73745        0.36146
O         -1.73846        0.24507        0.15528
H         -1.27188        0.60679       -0.62878
H         -2.55894        0.76818        0.23239
O         -2.70872       -1.49743        3.09989
H         -3.45449       -0.89775        2.94954
H         -2.69808       -2.04656        2.29890
O          3.53111       -0.79828        1.63326
H          3.07730       -0.22447        2.27162
H          2.84974       -1.43345        1.35501
O         -4.03869        1.75240        0.16384
H         -3.60846        2.62411        0.06414
H         -4.35559        1.44692       -0.70749
O          3.83658        0.82191       -0.49381
H          4.76768        0.89707       -0.74475
H          3.82593        0.21406        0.28141
O         -2.52762       -2.38371        0.40548
H         -3.47034       -2.34390        0.13457
H         -2.19735       -1.48392        0.20785
O          1.82930        1.00782        3.00477
H          0.96634        0.53919        2.90269
H          1.87133        1.32392        3.90778
H          7.42003        0.67538        0.52574
C          6.50400       -1.47079       -0.03150
H          6.08666       -1.99896       -0.88859
H          7.33939       -2.04543        0.36567
H          5.72679       -1.34853        0.72253
S          7.07822        0.14393       -0.66015
