65
CH3O+ASW1_dH4
O         -1.35264       -1.65559        3.02120
H         -0.52956       -2.01671        2.65720
H         -1.10967       -0.73788        3.24766
O          2.31521       -3.64157       -0.29195
H          2.92578       -4.35288       -0.09324
H          2.86665       -2.89198       -0.63627
O         -3.65120       -0.96089       -2.40564
H         -3.15823       -1.72378       -2.04060
H         -4.23962       -1.31063       -3.07555
O          2.36376        0.24184        2.02442
H          2.06851        0.89363        1.35632
H          3.32536        0.18682        1.91115
O         -0.14755       -4.45991       -1.32177
H          0.71212       -4.14026       -0.99044
H          0.03785       -4.92444       -2.13759
O         -0.68947        2.97266        1.76484
H         -1.36923        2.42548        1.31378
H         -0.97115        3.88559        1.62324
O         -3.36706       -2.45132        1.53807
H         -2.63237       -2.10082        2.11470
H         -3.88939       -3.02754        2.09745
O          1.00072       -2.05060        1.59366
H          1.51473       -2.71096        1.10282
H          1.59883       -1.29974        1.79714
O          3.83066       -1.60851       -1.04332
H          4.27213       -1.11178       -0.33456
H          3.55530       -0.94342       -1.69553
O         -0.08723        0.78034        3.50359
H         -0.30656        1.64285        3.12381
H          0.83926        0.63008        3.27469
O         -4.45683       -0.17242        0.26457
H         -4.40330       -0.41504       -0.67084
H         -4.22618       -0.97968        0.75286
O          0.49698        0.88886       -1.98770
H          0.19704        0.13854       -1.42859
H         -0.33801        1.20554       -2.39106
O          1.47259        2.18408        0.27507
H          1.05117        1.83944       -0.53411
H          0.75932        2.58678        0.81182
O         -0.57298       -0.83029       -0.24297
H         -0.01857       -1.26482        0.44122
H         -1.18751       -1.51891       -0.56153
O         -2.11606        1.50579       -2.46921
H         -2.62934        0.71449       -2.68853
H         -2.23773        1.58449       -1.50499
O          4.10206        2.14596       -0.65514
H          3.84319        1.71490       -1.48481
H          3.26027        2.43764       -0.26760
O         -2.31118       -2.82850       -0.96265
H         -1.63460       -3.52127       -1.09254
H         -2.71102       -2.93370       -0.07806
O          4.92686        0.15869        0.88741
H          5.83025        0.21387        1.19962
H          4.75149        0.96685        0.34158
O         -2.19805        1.30966        0.30793
H         -3.08395        0.91000        0.45007
H         -1.59546        0.53977        0.26074
O          3.02403        0.51805       -2.72827
H          2.05629        0.66153       -2.60736
H          3.19872        0.54885       -3.66931
O         -1.63822        5.19370        0.19085
C         -1.53906        4.54448       -1.00164
H         -2.50235        4.01082       -1.12938
H         -1.44979        5.23242       -1.85209
H         -0.76149        3.76884       -1.00747
