64
H2CO+ASW5_dH2
O         -2.36003        1.46191       -1.77750
H         -2.04246        2.34176       -2.03588
H         -2.48750        1.48429       -0.80826
O         -3.19866       -2.06894        2.15836
H         -2.60613       -1.41825        2.56049
H         -2.62066       -2.70660        1.68713
O          3.84921       -2.67320        0.64422
H          3.79736       -2.27973       -0.27151
H          4.44931       -3.41781        0.59218
O          3.99625        1.66386        0.96945
H          3.13041        2.07549        1.12881
H          4.01660        0.88846        1.55115
O         -1.54207        0.14539        2.95788
H         -0.58933       -0.00584        2.78614
H         -1.59927        0.62556        3.78501
O          3.98932        1.14527       -1.64261
H          4.08909        1.31839       -0.67282
H          4.80730        1.42639       -2.05500
O         -4.72796       -0.74584        0.49049
H         -5.65895       -0.88461        0.66513
H         -4.21988       -1.31531        1.13095
O         -1.84945       -3.18733       -2.07531
H         -2.44425       -2.39571       -2.08314
H         -2.24621       -3.81794       -2.67722
O         -2.99699        1.41511        0.88595
H         -2.44160        0.99747        1.56563
H         -3.75987        0.81962        0.78806
O          0.99416       -0.27873        2.11571
H          0.92909       -1.06865        1.52694
H          1.86727       -0.36916        2.52837
O         -0.01302        0.33309       -2.69652
H          0.56329        1.05226       -2.38825
H         -0.89448        0.59132       -2.37340
O          1.48560        2.45354       -1.66736
H          2.39427        2.18096       -1.87031
H          1.40560        2.38146       -0.69358
O          3.75369       -0.71151        2.52520
H          3.88148       -1.46081        1.90399
H          4.29152       -0.89359        3.29659
O          0.73476       -2.09227       -2.00512
H         -0.03447       -2.64752       -2.21493
H          0.45164       -1.17813       -2.26475
O         -0.85809        3.79394       -2.18431
H         -0.87925        4.43856       -2.89143
H          0.05238        3.44557       -2.15364
O          1.26776        2.23470        1.04478
H          0.59884        2.82140        1.44132
H          1.05297        1.33129        1.34905
O         -3.52263       -1.10249       -2.02888
H         -3.19129       -0.20758       -2.19578
H         -4.01848       -1.02858       -1.19543
O          3.49916       -1.65175       -1.74104
H          2.60186       -1.86759       -2.04614
H          3.60739       -0.68822       -1.81278
O         -1.54132       -3.70292        0.72063
H         -0.61628       -3.43519        0.82797
H         -1.70423       -3.63000       -0.23320
O          1.01969       -2.49506        0.61956
H          0.92617       -2.30243       -0.34550
H          1.92143       -2.83106        0.72873
O         -0.92607        3.64551        2.01293
C         -1.79761        3.84476        1.19926
H         -2.79965        4.17637        1.51315
H         -1.62191        3.72680        0.11845
