64
H2CO+ASW5_dH4
O          1.61290        2.40795       -0.11126
H          1.23823        3.27441       -0.33973
H          1.69352        1.89271       -0.94052
O          2.85927       -2.74758       -1.33369
H          2.16752       -2.47466       -1.95201
H          2.39305       -2.99940       -0.51110
O         -3.96815       -2.66132        0.98330
H         -3.92351       -1.84387        1.55489
H         -4.45419       -3.32158        1.47844
O         -4.55194        0.82612       -1.56273
H         -3.73264        1.15084       -1.96498
H         -4.51486       -0.13981       -1.64592
O          0.89466       -1.56410       -3.10955
H         -0.02131       -1.56242       -2.76572
H          0.85667       -1.85870       -4.01988
O         -4.54955        1.72581        0.95149
H         -4.65893        1.37289        0.03496
H         -5.39496        2.09625        1.20850
O          4.17083       -0.48622       -0.88598
H          5.13747       -0.49934       -0.88128
H          3.82558       -1.39880       -1.04435
O          1.87242       -1.14304        2.92087
H          2.33715       -0.44457        2.39594
H          2.39584       -1.27132        3.71254
O          2.17930        0.86350       -2.28281
H          1.70857        0.08742       -2.61948
H          3.01003        0.50104       -1.92855
O         -1.47800       -1.25725       -1.83365
H         -1.28518       -1.58864       -0.92194
H         -2.37368       -1.58708       -2.01034
O         -0.28405        1.98084        1.83333
H         -1.01496        2.42103        1.36956
H          0.44386        2.01916        1.18547
O         -2.21325        3.07147        0.14113
H         -3.08128        2.85381        0.51505
H         -2.09530        2.46357       -0.61171
O         -4.19144       -1.98436       -1.63318
H         -4.20632       -2.30234       -0.70366
H         -4.75505       -2.57017       -2.13981
O         -0.83099       -0.48117        2.57416
H          0.00466       -0.78309        2.96713
H         -0.63516        0.44985        2.29057
O         -0.02826        4.64204       -0.55075
H          0.09135        5.51429       -0.17568
H         -0.88588        4.32027       -0.22731
O         -1.82540        1.42953       -2.07014
H         -1.18585        1.83154       -2.66108
H         -1.55479        0.49444       -1.94723
O          3.19812        0.64116        1.41264
H          2.71986        1.41402        1.07235
H          3.51546        0.18556        0.60589
O         -3.63453       -0.51617        2.43971
H         -2.69873       -0.44621        2.69535
H         -3.88791        0.32219        2.01869
O          1.46322       -3.23739        0.99733
H          0.51799       -3.09930        0.83838
H          1.68389       -2.60218        1.69591
O         -1.18221       -2.26609        0.61623
H         -1.06528       -1.56893        1.30725
H         -2.04351       -2.66938        0.79971
O          6.83838        0.15059       -0.15523
C          6.63712        0.82131        0.82499
H          7.47314        1.31811        1.35091
H          5.62191        0.96610        1.23501
