9
C2H5OH
C         -1.21940       -0.22165       -0.00000
H         -2.06740        0.46852       -0.00000
H         -1.28756       -0.85727        0.88588
H         -1.28756       -0.85727       -0.88588
C          0.08500        0.54593        0.00000
H          0.14101        1.19118        0.88763
H          0.14101        1.19118       -0.88762
O          1.14821       -0.39482        0.00000
H          1.98121        0.07659       -0.00001
