12
C3H7OH
C         -1.53815       -0.51569        0.12717
H         -1.11780       -1.46974       -0.19635
H         -1.65388       -0.55001        1.21532
H         -2.53349       -0.41317       -0.31214
C         -0.63335        0.64077       -0.28842
H         -0.55172        0.68089       -1.37958
H         -1.06699        1.59406        0.03343
C          0.76508        0.54138        0.29307
H          1.34559        1.43292        0.01998
H          0.70587        0.49776        1.39067
O          1.38318       -0.63029       -0.21831
H          2.24549       -0.72915        0.18420
