66
CH3OH+ASW1_dH6
O         -1.86344        0.64318       -3.25425
H         -1.12903        1.12502       -2.84226
H         -1.52222       -0.27095       -3.29506
O          1.21249        3.37907        0.10545
H          1.76786        4.11078       -0.16678
H          1.79906        2.76182        0.62019
O         -4.72839        0.52942        1.97986
H         -4.26775        1.27447        1.54233
H         -5.41384        0.91115        2.52895
O          1.81038       -0.78768       -1.51848
H          1.49099       -1.36726       -0.79869
H          2.73653       -0.59368       -1.28777
O         -1.40080        4.10252        0.74189
H         -0.48749        3.81689        0.55199
H         -1.35134        4.63463        1.53577
O         -1.03788       -3.71418       -1.20727
H         -1.82241       -3.24484       -0.83376
H         -1.29438       -4.62106       -1.37479
O         -4.10507        1.37285       -2.09912
H         -3.27448        1.04329       -2.54370
H         -4.62542        1.78760       -2.78824
O          0.23996        1.40424       -1.61433
H          0.64096        2.16725       -1.16837
H          0.90671        0.68303       -1.62474
O          2.82922        1.69793        1.32696
H          3.35483        1.11892        0.74320
H          2.52413        1.12569        2.05004
O         -0.38438       -1.71049       -3.15914
H         -0.60670       -2.47108       -2.60260
H          0.49383       -1.43488       -2.86314
O         -5.12259       -0.78952       -0.56368
H         -5.20110       -0.38727        0.31328
H         -4.88725       -0.05940       -1.15926
O         -0.40338       -0.95609        2.30792
H         -0.70523       -0.35490        1.59312
H         -1.24945       -1.26512        2.69619
O          0.89261       -2.54464        0.42926
H          0.35102       -2.12606        1.12479
H          0.30135       -3.13329       -0.07121
O         -1.45906        0.29378        0.18731
H         -0.86553        0.67600       -0.49470
H         -2.15380        0.96347        0.33111
O         -2.99567       -1.67350        2.71881
H         -3.58598       -0.90851        2.65237
H         -3.03406       -2.06327        1.82990
O          3.39827       -2.05920        1.61136
H          3.00905       -1.51665        2.31449
H          2.63575       -2.49664        1.20027
O         -3.38403        2.25281        0.39198
H         -2.76809        3.00653        0.47782
H         -3.68223        2.18169       -0.53477
O          4.16562       -0.21613       -0.19537
H          5.10368       -0.21968       -0.44592
H          4.03373       -0.94515        0.45214
O         -2.79768       -2.09790       -0.08360
H         -3.68596       -1.80413       -0.37978
H         -2.27112       -1.27309       -0.09769
O          1.96520       -0.20138        3.24302
H          1.03794       -0.46304        3.03022
H          2.01238       -0.08550        4.19227
O          6.89590       -0.18877       -0.81962
H          7.43876       -0.79874       -0.31918
C          7.55132        1.06843       -0.91159
H          6.91281        1.71207       -1.51563
H          7.68511        1.52833        0.07297
H          8.52222        0.97438       -1.40759
