66
CH3OH+ASW1_dH2
O          0.38495        0.46709        3.58465
H         -0.27906        1.01235        3.13429
H         -0.01309       -0.42332        3.55371
O         -2.26044        3.55856        0.15203
H         -2.80976        4.29549        0.42279
H         -2.81907        3.00388       -0.45219
O          3.56170        0.36719       -1.41277
H          3.19541        1.18401       -1.03109
H          4.47350        0.54464       -1.69871
O         -3.22597       -0.64681        1.47400
H         -2.87777       -1.21015        0.75346
H         -4.12310       -0.40677        1.19414
O          0.43622        4.21289       -0.16979
H         -0.50207        3.95810       -0.10238
H          0.49688        4.80328       -0.92060
O         -0.53734       -3.72097        1.25075
H          0.30353       -3.28314        0.97180
H         -0.35113       -4.65041        1.38385
O          2.76393        1.10213        2.65053
H          1.88174        0.80736        3.00793
H          3.24494        1.45535        3.39985
O         -1.52278        1.43559        1.81356
H         -1.83766        2.24712        1.38413
H         -2.23409        0.76601        1.73285
O         -3.82834        2.01718       -1.31843
H         -4.45450        1.45951       -0.82783
H         -3.48956        1.45631       -2.03630
O         -1.23163       -1.78105        3.24878
H         -1.01136       -2.52738        2.67245
H         -2.06370       -1.43544        2.89957
O          3.77492       -1.01072        1.04044
H          3.76761       -0.55343        0.18120
H          3.53679       -0.32503        1.68572
O         -0.69517       -0.78149       -2.14376
H         -0.40650       -0.22730       -1.38597
H          0.15619       -1.13874       -2.48032
O         -2.24170       -2.35457       -0.46970
H         -1.61592       -1.93453       -1.09148
H         -1.73158       -3.00371        0.04597
O          0.27233        0.31185        0.09823
H         -0.35580        0.69103        0.74859
H          1.00417        0.95771        0.04082
O          1.85083       -1.66682       -2.40729
H          2.45713       -0.92408       -2.25169
H          1.80118       -2.09455       -1.53759
O         -4.58147       -1.66687       -1.83412
H         -4.10324       -1.12229       -2.47984
H         -3.88344       -2.17011       -1.38340
O          2.26372        2.19090        0.16482
H          1.71160        2.99319        0.10126
H          2.50427        2.04372        1.09785
O         -5.46810        0.07673       -0.05289
H         -6.41653        0.09710        0.07605
H         -5.27606       -0.62272       -0.72858
O          1.41566       -2.18121        0.37117
H          2.29544       -1.97092        0.74938
H          0.95820       -1.31544        0.37336
O         -2.91710        0.15775       -3.23579
H         -2.02605       -0.16733       -2.95961
H         -2.87378        0.33453       -4.17590
O          6.27270        0.39836       -1.86603
H          6.72687        0.39627       -2.70865
C          6.75664       -0.67384       -1.05962
H          7.81213       -0.52992       -0.81002
H          6.16906       -0.67319       -0.14189
H          6.62294       -1.63973       -1.55626
