66
CH3OH+ASW1_dH7
O         -3.02681        1.22578        2.44773
H         -2.14484        0.91265        2.70309
H         -2.82737        2.02770        1.92777
O          1.48039       -1.54896        2.97860
H          1.88749       -1.69803        3.83303
H          2.19061       -1.18017        2.38958
O         -3.22382       -2.86319       -1.88614
H         -2.93785       -2.96856       -0.95607
H         -3.54673       -3.71699       -2.17567
O          0.89205        2.59331        1.28687
H          0.89165        2.45707        0.31711
H          1.82475        2.70856        1.52820
O         -0.46041       -3.43800        2.29438
H          0.22644       -2.77301        2.48522
H          0.00826       -4.24468        2.08035
O         -1.74956        3.42292       -1.72471
H         -2.23950        2.57500       -1.85616
H         -2.12518        4.07021       -2.32155
O         -4.42210       -0.82784        1.59173
H         -3.92149       -0.01447        1.88026
H         -5.15592       -0.91542        2.20125
O         -0.35157        0.49265        2.45022
H          0.27125       -0.16494        2.79859
H          0.17362        1.26076        2.13994
O          3.33304       -0.43550        1.45504
H          3.50713        0.50449        1.62749
H          3.23071       -0.49540        0.48411
O         -1.88494        3.40054        1.14014
H         -1.89825        3.53020        0.18043
H         -0.94754        3.35722        1.37141
O         -4.84180       -0.56606       -1.20762
H         -4.47790       -1.40034       -1.53732
H         -4.82992       -0.64839       -0.24019
O          0.63232       -0.36352       -2.00893
H          0.09178       -0.49492       -1.20221
H          0.03783       -0.68754       -2.71620
O          0.81236        2.34984       -1.46482
H          0.69755        1.43798       -1.79768
H          0.00582        2.83804       -1.70563
O         -1.14988       -0.41522        0.00900
H         -0.89446       -0.06262        0.88747
H         -1.63401       -1.24161        0.19409
O         -1.56813       -1.07508       -3.46917
H         -2.04268       -1.80275       -3.04168
H         -2.03339       -0.28568       -3.14790
O          3.60200        2.26935       -1.17217
H          3.60435        1.31128       -1.34872
H          2.71117        2.55023       -1.43587
O         -2.57447       -2.65893        0.73236
H         -1.91538       -3.01046        1.36172
H         -3.26221       -2.16928        1.22223
O          3.68434        2.38395        1.46303
H          4.37702        2.93343        1.82998
H          3.76110        2.43096        0.47388
O         -2.68270        0.95728       -1.82000
H         -3.57874        0.59273       -1.65644
H         -2.14556        0.56720       -1.10092
O          3.21679       -0.48311       -1.29480
H          2.32227       -0.59854       -1.67814
H          3.80258       -1.18056       -1.63181
O          5.17109       -2.37972       -1.64799
H          5.74401       -2.57233       -2.39014
C          5.94800       -2.24312       -0.46171
H          6.41329       -3.19394       -0.18427
H          6.72022       -1.47545       -0.57386
H          5.26467       -1.93490        0.32949
