66
CH3OH+ASW1_dO6
O          0.08102       -3.33182        2.13851
H          0.82051       -3.17811        1.53015
H          0.15930       -2.58715        2.76459
O          3.02094       -2.18728       -2.13302
H          3.79959       -2.68153       -2.39332
H          3.29022       -1.23190       -2.12185
O         -3.73564       -1.03704       -1.81464
H         -3.00920       -1.67903       -1.95648
H         -4.38514       -1.19020       -2.50180
O          2.80506        0.01312        1.81175
H          2.19601        0.75563        1.62550
H          3.68299        0.33785        1.55620
O          0.61826       -3.20861       -3.11727
H          1.44396       -2.80922       -2.78623
H          0.66039       -3.15698       -4.07191
O         -0.74922        1.33557        3.39560
H         -1.43660        0.95438        2.79985
H         -1.19955        1.79458        4.10488
O         -2.06817       -3.92540        0.75284
H         -1.28361       -3.68143        1.31889
H         -2.30217       -4.82184        0.99671
O          1.94319       -2.15918        0.44080
H          2.43144       -2.29826       -0.38671
H          2.38340       -1.42922        0.92523
O          3.81268        0.32658       -1.94586
H          4.29387        0.56659       -1.13671
H          3.23418        1.08298       -2.13867
O          0.80494       -1.07701        3.60078
H          0.28125       -0.26595        3.67168
H          1.65175       -0.79609        3.22954
O         -3.91233       -1.78487        0.97919
H         -4.08589       -1.57534        0.05064
H         -3.37842       -2.59623        0.96255
O         -0.11632        1.69723       -1.04693
H         -0.09216        0.72754       -0.88928
H         -1.06807        1.86903       -1.17788
O          1.05613        2.13234        1.43606
H          0.51738        2.07340        0.62485
H          0.44162        2.05307        2.18680
O         -0.32530       -0.84274       -0.24427
H          0.47958       -1.32972        0.03723
H         -0.82988       -1.47109       -0.79605
O         -2.86216        1.51405       -0.91707
H         -3.20287        0.72694       -1.37340
H         -2.77056        1.22307        0.00952
O          3.29079        3.35674        0.27463
H          2.92654        3.28618       -0.62206
H          2.53729        3.16264        0.85541
O         -1.66224       -2.75682       -1.68863
H         -0.90676       -3.03922       -2.24079
H         -1.77457       -3.38441       -0.94924
O          4.92035        1.28357        0.48551
H          5.83595        1.48433        0.68068
H          4.42909        2.14346        0.44878
O         -2.18409        0.23268        1.46248
H         -2.87478       -0.46588        1.49425
H         -1.45096       -0.19587        0.97432
O          2.11961        2.57448       -2.19592
H          1.22142        2.30379       -1.89423
H          2.00449        3.09438       -2.99205
C         -3.77230        4.75290       -0.23002
H         -4.19013        5.75534       -0.34363
H         -4.25759        4.27908        0.63463
H         -2.69973        4.85534       -0.01093
O         -4.00883        4.05275       -1.42582
H         -3.67902        3.15109       -1.30957
