69
C2H5SH+ASW1_dO4
O         -1.96559       -1.96877        0.65670
H         -1.70512       -1.20650        1.19890
H         -2.13348       -1.56665       -0.21590
O          0.70759        1.57049        3.58160
H          0.36625        1.98404        4.37581
H          1.01341        2.30884        2.99284
O          3.79109       -3.42909        0.02391
H          3.31343       -3.16770        0.83713
H          4.52234       -3.98413        0.29677
O         -1.28754        2.08060       -0.44671
H         -0.54318        2.01846       -1.08048
H         -1.33576        3.01913       -0.20357
O          1.98467       -0.87685        3.99530
H          1.57952       -0.00749        3.82065
H          2.72571       -0.71365        4.57839
O         -0.52195       -0.30808       -3.65809
H          0.07164       -1.00513       -3.28548
H         -0.66668       -0.51169       -4.58241
O         -0.25587       -3.92907        1.10764
H         -0.91020       -3.21296        0.88621
H         -0.76552       -4.64506        1.48914
O         -0.83322        0.37069        1.59695
H         -0.46000        0.79397        2.38709
H         -1.05599        1.07991        0.95774
O          1.34982        3.55440        1.95934
H          0.61944        3.98473        1.48521
H          2.08434        3.51034        1.32453
O         -2.41423       -0.29697       -1.53875
H         -1.89158       -0.33955       -2.35503
H         -2.26895        0.59731       -1.19566
O          1.33804       -4.31775       -1.21597
H          2.23341       -4.21660       -0.86199
H          0.75461       -4.31645       -0.44011
O          2.93925        0.95981       -1.02527
H          2.37721        0.43419       -0.41614
H          3.50315        0.27071       -1.43762
O          0.68143        1.84946       -2.36356
H          1.52347        1.47109       -2.04428
H          0.30345        1.21033       -2.99264
O          1.25360       -0.70370        0.22741
H          0.48104       -0.33748        0.70779
H          1.61117       -1.40172        0.80873
O          3.91855       -1.37191       -2.01470
H          4.05383       -2.02650       -1.31364
H          3.04369       -1.59944       -2.36900
O          1.20845        4.51716       -1.69593
H          2.03213        4.28919       -1.23611
H          0.98308        3.71397       -2.19272
O          2.04300       -2.69159        1.95234
H          2.02355       -2.15257        2.76701
H          1.21628       -3.20591        1.88824
O         -0.59627        4.69730        0.23098
H         -1.04626        5.53846        0.31327
H          0.03388        4.77035       -0.53030
O          1.12287       -1.84152       -2.28261
H          1.08562       -2.79996       -2.07244
H          1.04982       -1.41537       -1.40511
O          3.28263        3.42055       -0.09244
H          3.30862        2.49474       -0.43304
H          4.18955        3.71549       -0.00525
C         -4.51783        0.47267        1.43841
H         -5.22454        1.30589        1.42396
H         -4.16013        0.33302        2.46387
H         -3.65772        0.74853        0.82382
C         -5.16666       -0.80505        0.92672
H         -4.46334       -1.63702        0.96929
H         -6.03417       -1.06904        1.53586
S         -5.81459       -0.67445       -0.77906
H         -4.61127       -0.54989       -1.37420
