69
C2H5SH+ASW1_dH7
O         -3.60498        1.16254        2.35652
H         -2.70918        0.92495        2.64290
H         -3.45038        1.95426        1.80689
O          1.06856       -1.26790        3.10281
H          1.46748       -1.35250        3.96986
H          1.76282       -0.87864        2.51013
O         -3.42521       -3.10297       -1.81003
H         -3.15046       -3.15173       -0.87200
H         -3.67826       -3.98876       -2.07169
O          0.25144        2.74263        1.20307
H          0.26766        2.57288        0.23880
H          1.17216        2.92727        1.44544
O         -0.73144       -3.31078        2.46304
H         -0.08999       -2.59834        2.63826
H         -0.21415       -4.10596        2.33551
O         -2.40275        3.27583       -1.88079
H         -2.83095        2.39121       -1.98358
H         -2.81252        3.87160       -2.50810
O         -4.83325       -1.01873        1.55688
H         -4.39549       -0.16188        1.81971
H         -5.56978       -1.13320        2.15869
O         -0.88366        0.62046        2.43979
H         -0.22941        0.02285        2.83496
H         -0.40150        1.40650        2.10612
O          2.86873       -0.10291        1.54587
H          2.98235        0.85490        1.66390
H          2.78994       -0.22524        0.58029
O         -2.58111        3.35390        0.97873
H         -2.58614        3.44805        0.01479
H         -1.64819        3.38769        1.22750
O         -5.21368       -0.90052       -1.25723
H         -4.78786       -1.72068       -1.54576
H         -5.21872       -0.94422       -0.28725
O          0.24293       -0.34600       -1.96362
H         -0.30288       -0.47720       -1.15953
H         -0.31573       -0.74163       -2.66491
O          0.21557        2.39717       -1.53924
H          0.16901        1.46721       -1.83580
H         -0.61986        2.81780       -1.80913
O         -1.56334       -0.43892        0.02416
H         -1.35203       -0.03662        0.89289
H         -1.99190       -1.29068        0.23191
O         -1.86610       -1.26373       -3.42703
H         -2.29878       -2.00742       -2.98270
H         -2.39438       -0.49817       -3.14835
O          2.99475        2.50743       -1.23105
H          3.04639        1.54617       -1.37381
H          2.09145        2.73142       -1.50783
O         -2.84223       -2.74471        0.80800
H         -2.17898       -3.02691        1.46709
H         -3.57541       -2.28773        1.26242
O          3.05932        2.71954        1.40064
H          3.70808        3.33112        1.74935
H          3.13634        2.73796        0.41119
O         -3.15688        0.74835       -1.88555
H         -4.02790        0.32561       -1.72547
H         -2.60963        0.42745       -1.14071
O          2.79622       -0.27587       -1.21843
H          1.91418       -0.46308       -1.61095
H          3.43332       -0.92974       -1.53845
C          6.05234        0.24233       -0.03734
H          6.30891        0.78856        0.87479
H          5.13767        0.67544       -0.44483
H          6.85661        0.39911       -0.76144
C          5.87350       -1.23262        0.28444
H          5.06095       -1.36612        1.00102
H          6.77993       -1.65769        0.71766
H          6.36333       -1.85051       -1.98848
S          5.39335       -2.26327       -1.15350
