69
C2H5SH+ASW1_dO6
O         -0.73151        2.88530        2.52516
H         -1.47783        2.77912        1.91459
H         -0.75372        2.05560        3.03883
O         -3.73785        2.23016       -1.79956
H         -4.54214        2.72176       -1.97196
H         -3.96934        1.27148       -1.91152
O          3.06322        1.31812       -1.78848
H          2.32148        1.95495       -1.84270
H          3.69387        1.55389       -2.47035
O         -3.30917       -0.49508        1.78899
H         -2.67764       -1.17814        1.48569
H         -4.18181       -0.82060        1.51715
O         -1.40476        3.48594       -2.68013
H         -2.20236        3.00667       -2.38883
H         -1.47067        3.55904       -3.63204
O          0.34255       -1.87143        3.08087
H          0.98713       -1.37271        2.52509
H          0.84298       -2.40944        3.69466
O          1.34925        3.76915        1.19434
H          0.58971        3.41228        1.73471
H          1.54278        4.63731        1.55038
O         -2.57699        1.87860        0.71316
H         -3.09954        2.11669       -0.06945
H         -2.97264        1.06860        1.09943
O         -4.42151       -0.31881       -1.93366
H         -4.86957       -0.68917       -1.15518
H         -3.81813       -1.01510       -2.24233
O         -1.30024        0.41255        3.66728
H         -0.74108       -0.37575        3.61116
H         -2.14535        0.14791        3.28051
O          3.28918        1.72062        1.07141
H          3.41508        1.66214        0.11367
H          2.71683        2.49519        1.20263
O         -0.41529       -1.64697       -1.35063
H         -0.47129       -0.70756       -1.06955
H          0.54349       -1.76671       -1.50817
O         -1.49494       -2.46253        1.07541
H         -0.98638       -2.26710        0.26553
H         -0.85856       -2.46565        1.81186
O         -0.28219        0.77729       -0.22128
H         -1.09624        1.18291        0.14864
H          0.18122        1.50037       -0.68600
O          2.30476       -1.40579       -1.26339
H          2.57161       -0.54597       -1.62459
H          2.22913       -1.22814       -0.30902
O         -3.71439       -3.61095       -0.18878
H         -3.38200       -3.39679       -1.07495
H         -2.95134       -3.46707        0.39424
O          0.94143        2.94177       -1.38996
H          0.15762        3.26652       -1.87489
H          1.04501        3.45579       -0.56651
O         -5.41727       -1.66128        0.35859
H         -6.31725       -1.92809        0.54722
H         -4.89333       -2.48467        0.18664
O          1.65958       -0.43312        1.29244
H          2.32619        0.27850        1.40645
H          0.90107        0.02680        0.87727
O         -2.65342       -2.43246       -2.54872
H         -1.75382       -2.17640       -2.23634
H         -2.55157       -2.81794       -3.41946
C          5.05613       -1.35389        1.23129
H          5.76078       -2.09812        1.60955
H          4.94387       -0.55928        1.97499
H          4.08544       -1.84011        1.10766
C          5.54043       -0.76614       -0.08509
H          4.86009        0.00952       -0.43608
H          6.52259       -0.30450        0.03533
S          5.75029       -1.99384       -1.42502
H          4.43814       -2.27498       -1.54539
