69
C2H5SH+ASW1_dH2
O         -0.63957        2.23757        3.03481
H         -1.31236        2.37846        2.35045
H         -0.88176        1.36452        3.39751
O         -3.28271        2.92317       -1.53462
H         -3.98569        3.56443       -1.64738
H         -3.64530        2.05478       -1.84885
O          3.09177        0.70148       -1.21835
H          2.58231        1.53190       -1.25898
H          3.97683        0.84930       -1.57907
O         -3.69117       -0.40071        1.50451
H         -3.16214       -1.13535        1.13303
H         -4.57107       -0.49885        1.10820
O         -0.71770        3.94574       -1.95102
H         -1.60047        3.54848       -1.83849
H         -0.65778        4.20512       -2.87028
O         -0.52758       -2.62834        2.82080
H          0.25610       -2.18716        2.41256
H         -0.20634       -3.34220        3.37179
O          1.71196        2.89989        2.06033
H          0.84814        2.61104        2.46494
H          2.01761        3.63714        2.59026
O         -2.41379        1.91574        0.92029
H         -2.80842        2.38313        0.16665
H         -2.98976        1.14952        1.12611
O         -4.33478        0.59113       -2.20708
H         -4.92230        0.18584       -1.54807
H         -3.81474       -0.14162       -2.57678
O         -1.80268       -0.20629        3.69268
H         -1.38442       -1.06414        3.52987
H         -2.62458       -0.23057        3.18490
O          3.24533        0.55774        1.61665
H          3.29569        0.62231        0.64852
H          2.83054        1.39145        1.89385
O         -0.69105       -1.58751       -1.54324
H         -0.59884       -0.70578       -1.12004
H          0.24056       -1.87760       -1.64002
O         -2.18553       -2.53729        0.59219
H         -1.55649       -2.31781       -0.12193
H         -1.65262       -2.77638        1.37089
O         -0.24650        0.57418       -0.02665
H         -1.01851        1.05036        0.34776
H          0.36892        1.27619       -0.31538
O          2.00308       -1.90684       -1.23582
H          2.36374       -1.02128       -1.40603
H          1.87497       -1.90744       -0.27299
O         -4.40870       -3.01560       -1.03766
H         -3.94534       -2.72196       -1.83831
H         -3.70343       -3.11630       -0.37763
O          1.36399        2.70727       -0.66954
H          0.69353        3.26648       -1.10648
H          1.49461        3.01797        0.24550
O         -5.79727       -0.89416       -0.28120
H         -6.74574       -1.01019       -0.22174
H         -5.40822       -1.76283       -0.55727
O          1.23500       -1.24407        1.42270
H          2.00361       -0.70353        1.70534
H          0.64063       -0.58488        1.00912
O         -2.88536       -1.68979       -3.03618
H         -1.99525       -1.67751       -2.61066
H         -2.75590       -1.93334       -3.95325
C          6.59923       -2.31788        0.01635
H          6.17545       -3.01150        0.74830
H          7.53944       -1.92912        0.41316
H          6.82014       -2.88418       -0.89231
C          5.61378       -1.19421       -0.26061
H          5.39403       -0.62830        0.64679
H          4.66705       -1.57946       -0.64279
H          6.34242       -0.75419       -2.50712
S          6.25182        0.05882       -1.43981
