69
C2H5SH+ASW1_dO5
O         -1.72652       -0.69627       -2.20975
H         -0.86806       -0.36351       -2.51507
H         -1.48380       -1.50840       -1.72369
O          2.73482        2.13264       -2.74086
H          3.13527        2.32610       -3.58971
H          3.45341        1.74516       -2.17637
O         -1.77216        3.18456        2.34078
H         -1.52658        3.33711        1.40511
H         -2.08044        4.02312        2.68601
O          2.19906       -2.12637       -1.27582
H          2.22895       -2.03069       -0.30253
H          3.12516       -2.22581       -1.54762
O          0.80465        3.97760       -1.92575
H          1.49806        3.33520       -2.16427
H          1.24053        4.82540       -1.84329
O         -0.33174       -3.10240        1.79895
H         -0.80009       -2.25706        2.00199
H         -0.68899       -3.77997        2.37320
O         -3.08065        1.32053       -1.16052
H         -2.59234        0.54075       -1.53471
H         -3.97726        1.26766       -1.50741
O          0.93619        0.04510       -2.29586
H          1.54773        0.72502       -2.62179
H          1.46914       -0.73852       -2.04545
O          4.61635        0.94721       -1.31350
H          4.77719        0.00841       -1.50449
H          4.66638        1.02826       -0.34634
O         -0.56777       -2.92879       -1.04231
H         -0.53889       -3.09998       -0.08899
H          0.35826       -2.89000       -1.31760
O         -3.36338        0.91106        1.57648
H         -3.03530        1.72638        1.98370
H         -3.28314        1.06121        0.61589
O          2.09266        0.71033        2.11464
H          1.52074        0.87348        1.33389
H          1.52752        1.01165        2.85803
O          2.20941       -1.99275        1.49039
H          2.09699       -1.09418        1.85569
H          1.42110       -2.50301        1.74494
O          0.21277        0.83161        0.20559
H          0.43429        0.52277       -0.69895
H         -0.28201        1.66452        0.08230
O          0.00013        1.35603        3.72272
H         -0.51199        2.09542        3.36260
H         -0.48171        0.57433        3.40805
O          4.98732       -1.89401        1.16406
H          5.03353       -0.95760        1.41503
H          4.09373       -2.16766        1.42790
O         -1.22307        3.12102       -0.30950
H         -0.59235        3.52333       -0.93795
H         -1.94504        2.69437       -0.80711
O          4.98140       -1.86354       -1.48167
H          5.69356       -2.33986       -1.90904
H          5.09860       -1.96942       -0.50333
O         -1.19515       -0.62657        2.06620
H         -2.09280       -0.24241        1.97194
H         -0.69816       -0.20859        1.33325
O          4.66773        0.90709        1.50563
H          3.73566        0.94575        1.82791
H          5.17978        1.50754        2.04814
C         -3.96334       -2.42501       -0.13662
H         -4.62969       -2.91362        0.57846
H         -3.28308       -3.17279       -0.55359
H         -3.35764       -1.69390        0.40602
C         -4.74663       -1.75822       -1.25611
H         -4.06602       -1.30236       -1.97484
H         -5.35283       -2.49013       -1.79292
S         -5.94431       -0.49483       -0.66390
H         -5.25515       -0.10967        0.42659
