69
C2H5SH+ASW1_dH5
O         -1.12289       -0.04796       -2.87677
H         -0.45125        0.63038       -2.70883
H         -0.59063       -0.86130       -2.95304
O          1.96947        3.66782       -0.61814
H          2.24431        4.46219       -1.07824
H          2.79673        3.26008       -0.25110
O         -2.41453       -0.17025        2.99795
H         -2.27384        0.59945        2.40771
H         -3.01166        0.11641        3.68949
O          3.13640       -0.42122       -2.11472
H          3.16269       -0.96299       -1.30047
H          4.01924       -0.02505       -2.18150
O         -0.48129        3.88520        0.69558
H          0.39098        3.78575        0.27127
H         -0.36556        4.53300        1.39033
O          1.27674       -3.84064       -0.85154
H          0.52396       -3.51982       -0.29879
H          1.22534       -4.79585       -0.88717
O         -3.01722        0.27271       -1.06156
H         -2.34839        0.10911       -1.77828
H         -3.88516        0.38238       -1.47385
O          1.08598        1.33937       -1.89131
H          1.38781        2.21898       -1.61376
H          1.88432        0.79427       -2.05372
O          4.20845        2.53041        0.20698
H          4.70821        2.03531       -0.46326
H          4.25441        1.99147        1.01426
O          0.87963       -1.99966       -3.03014
H          1.00146       -2.71484       -2.38927
H          1.70922       -1.50485       -3.00974
O         -3.10455       -1.85502        0.75597
H         -3.03155       -1.38905        1.60173
H         -3.13528       -1.14705        0.08658
O          2.09255       -0.61005        2.17795
H          1.47803       -0.18199        1.54290
H          1.47787       -1.04383        2.80745
O          3.20420       -2.08206        0.10227
H          2.77506       -1.71563        0.89894
H          2.66805       -2.84424       -0.17988
O          0.24527        0.10343        0.37667
H          0.51911        0.51958       -0.46929
H         -0.52072        0.62307        0.68577
O         -0.04868       -1.81395        3.34684
H         -0.80700       -1.21442        3.40621
H         -0.21871       -2.31176        2.53030
O          5.72215       -0.93823        0.50699
H          5.41777       -0.41953        1.26876
H          5.00682       -1.57694        0.35258
O         -1.96771        1.61086        1.02592
H         -1.55929        2.48818        0.89443
H         -2.43044        1.33724        0.20690
O          5.60820        0.76529       -1.51458
H          6.43118        0.92075       -1.97843
H          5.79102        0.10295       -0.80025
O         -0.48021       -2.54299        0.63457
H         -1.45939       -2.50635        0.58777
H         -0.20800       -1.62723        0.42131
O          4.37512        0.72559        2.37282
H          3.51026        0.25504        2.44534
H          4.63988        0.96822        3.26053
C         -5.67870        0.52332        1.16964
H         -6.03463        0.92119        2.12529
H         -4.74710        1.03214        0.91386
H         -5.45717       -0.53824        1.30322
C         -6.74117        0.73460        0.10148
H         -6.93340        1.79780       -0.05557
H         -7.68691        0.27254        0.38799
H         -6.10837       -1.17519       -1.19914
S         -6.28605        0.10889       -1.55864
