69
C2H5SH+ASW1_dO1
O         -2.48860       -1.21500       -0.72627
H         -2.24026       -0.54756       -0.06503
H         -2.13508       -0.83444       -1.55466
O         -0.46374        1.53889        3.30791
H         -1.00300        2.07611        3.89017
H          0.27753        2.12144        2.99654
O          2.27349       -4.33524        1.05616
H          1.59127       -3.89452        1.60214
H          2.61718       -5.06326        1.57498
O         -0.24925        2.42587       -1.10454
H          0.63578        2.09826       -1.36606
H         -0.10349        3.33832       -0.80787
O         -0.25185       -1.14362        4.05527
H         -0.27570       -0.20453        3.79560
H          0.12961       -1.17151        4.93234
O          1.12443       -0.28892       -3.84808
H          1.26068       -1.11373       -3.32133
H          1.33578       -0.48760       -4.76046
O         -1.80146       -3.57164        0.26709
H         -2.05697       -2.71186       -0.16028
H         -2.61300       -4.07203        0.36258
O         -1.24763        0.75183        0.76199
H         -1.13174        1.08168        1.66884
H         -0.95348        1.45801        0.14686
O          1.39503        3.14946        2.34549
H          1.11198        3.75598        1.64136
H          2.27932        2.84197        2.08447
O         -1.42366        0.35615       -2.73235
H         -0.62636        0.14370       -3.24068
H         -1.23815        1.21027       -2.31875
O          0.45244       -4.53957       -1.17849
H          1.09453       -4.68402       -0.46854
H         -0.38162       -4.32706       -0.72989
O          3.28155        0.03361        0.09960
H          2.38454       -0.26798        0.35960
H          3.74075       -0.81307       -0.08860
O          2.19359        1.49182       -1.99524
H          2.66116        0.89763       -1.37701
H          1.96061        0.95848       -2.77554
O          0.81556       -0.97927        0.35577
H          0.05852       -0.36863        0.47426
H          0.65898       -1.71118        0.98326
O          3.86774       -2.53409       -0.56155
H          3.48919       -3.15584        0.07752
H          3.20735       -2.51447       -1.27314
O          3.14305        3.90156       -0.93013
H          3.57556        3.45724       -0.18341
H          2.92950        3.18148       -1.54557
O          0.16397       -2.99676        2.09614
H         -0.04825       -2.43626        2.86793
H         -0.66463       -3.25514        1.65046
O          0.83334        4.72981        0.05541
H          0.67154        5.67259        0.01355
H          1.71880        4.56179       -0.35748
O          1.46355       -2.17975       -2.04044
H          1.05600       -3.06766       -1.94496
H          1.14378       -1.69886       -1.25084
O          3.88446        2.31714        1.30695
H          3.78371        1.41100        0.92880
H          4.70473        2.32716        1.80112
C         -4.27689        1.99014       -1.30038
H         -5.17229        2.19945       -1.89027
H         -3.66982        2.90062       -1.25701
H         -3.70003        1.22578       -1.82562
C         -4.64362        1.53253        0.10341
H         -3.74680        1.36630        0.70194
H         -5.24835        2.28513        0.61457
S         -5.65981        0.01119        0.14096
H         -4.71739       -0.78231       -0.40483
