69
C2H5SH+ASW1_dO2
O          2.04941        0.25317       -2.06172
H          1.72653       -0.45021       -1.47651
H          1.30698        0.36808       -2.68904
O          0.36302       -2.85257        1.90016
H          0.68211       -3.72020        2.15287
H         -0.62585       -2.91020        1.90755
O          0.79249        3.90821        2.44058
H          1.29106        3.06569        2.43034
H          1.09696        4.39974        3.20418
O         -1.71752       -1.71759       -1.88879
H         -2.29648       -0.98707       -1.58885
H         -2.23531       -2.52424       -1.73394
O          2.43719       -0.98682        2.46824
H          1.60708       -1.48843        2.46891
H          3.00009       -1.48271        1.85580
O         -2.25072        2.16974       -3.00099
H         -1.74085        2.68043       -2.32592
H         -2.63059        2.79768       -3.61573
O          3.12458        2.20939       -0.64601
H          2.69528        1.52187       -1.22161
H          4.03050        2.28274       -0.94865
O          0.61201       -1.57041       -0.53111
H          0.59546       -2.13347        0.26350
H         -0.21402       -1.74896       -1.03189
O         -2.26960       -3.07253        1.71710
H         -2.60922       -3.39033        0.86501
H         -2.88586       -2.37781        2.00259
O         -0.27873        0.16240       -3.54011
H         -0.94087        0.86832       -3.49212
H         -0.73890       -0.63040       -3.23214
O          1.37398        4.41380       -0.34163
H          1.25846        4.45032        0.61920
H          2.07475        3.75972       -0.49281
O         -2.68464        1.10056        1.39398
H         -1.74645        0.87767        1.21940
H         -2.63533        2.05053        1.63634
O         -3.37592        0.37989       -1.19504
H         -3.18786        0.78837       -0.32800
H         -3.18421        1.05009       -1.87437
O         -0.15394        0.85986        0.51345
H          0.12882        0.01305        0.11400
H          0.60690        1.16124        1.04733
O         -1.98692        3.71062        1.63560
H         -1.12452        3.80245        2.06750
H         -1.76882        3.73736        0.69014
O         -5.10556       -1.62796       -0.30632
H         -4.96476       -1.41621        0.63022
H         -4.72804       -0.86857       -0.77993
O          2.11977        1.63151        1.85300
H          2.32911        0.72799        2.17504
H          2.66211        1.79503        1.05952
O         -3.44935       -3.62938       -0.81135
H         -3.85205       -4.44475       -1.11081
H         -4.17720       -2.97056       -0.67513
O         -0.91347        3.10116       -0.92936
H         -0.11034        3.66565       -0.89149
H         -0.62535        2.25701       -0.52890
O         -4.08356       -0.98420        2.26361
H         -3.60030       -0.14614        2.07116
H         -4.52747       -0.86793        3.10413
C          5.14154       -0.66384       -0.75841
H          4.98382       -0.20601        0.22155
H          6.05967       -0.24972       -1.18740
H          4.30742       -0.38897       -1.40818
C          5.26309       -2.17496       -0.64295
H          5.42386       -2.63399       -1.61915
H          6.10345       -2.45748       -0.00578
S          3.81554       -2.98185        0.13335
H          2.88358       -2.55516       -0.73965
