69
C2H5SH+ASW1_dH6
O         -1.95954       -1.09551       -3.16487
H         -1.51195       -0.24465       -3.03552
H         -1.30156       -1.73703       -2.83736
O         -0.51566        3.72756       -1.44514
H         -0.22989        4.43064       -2.03031
H          0.17408        3.66402       -0.73328
O         -5.19506       -0.12349        1.75900
H         -4.99199        0.48968        1.02342
H         -6.03063        0.15856        2.13249
O          1.74823       -0.14057       -1.13145
H          1.54621       -0.46549       -0.23109
H          2.44668        0.52735       -1.00021
O         -3.27885        3.57646       -1.09706
H         -2.30736        3.62358       -1.16732
H         -3.55792        4.40055       -0.69859
O          0.14033       -3.55130        0.48293
H         -0.79946       -3.29581        0.65369
H          0.23937       -4.47108        0.72923
O         -4.43810       -0.88101       -2.31422
H         -3.50003       -1.01805       -2.62319
H         -4.99243       -1.02136       -3.08287
O         -0.49903        1.01960       -2.11723
H         -0.45909        1.98799       -2.05747
H          0.37743        0.67281       -1.84742
O          1.42365        3.48961        0.33286
H          2.22529        3.03809        0.02075
H          1.28053        3.16823        1.23858
O          0.27747       -2.43078       -2.15687
H          0.27798       -2.91866       -1.32020
H          0.94158       -1.73876       -2.04345
O         -4.76340       -2.41626        0.05059
H         -5.09400       -1.75254        0.67286
H         -4.74720       -1.97158       -0.81270
O         -0.69678        0.42691        2.47010
H         -1.10998        0.52660        1.58534
H         -1.41595        0.01133        2.99277
O          1.27516       -1.18666        1.39058
H          0.53763       -0.75647        1.86567
H          1.00442       -2.10531        1.21614
O         -1.87617        0.20047        0.07573
H         -1.39061        0.46195       -0.73584
H         -2.78147        0.54611       -0.04217
O         -2.87760       -0.98051        3.26972
H         -3.69534       -0.60030        2.91589
H         -2.66461       -1.68412        2.63528
O          3.26581        0.61611        2.15044
H          2.66070        1.22291        2.60523
H          2.73147       -0.17946        1.99101
O         -4.39153        1.15779       -0.48286
H         -4.11304        2.05027       -0.76700
H         -4.52992        0.59768       -1.27018
O          3.55798        1.75563       -0.25633
H          4.46167        1.68835       -0.58956
H          3.57846        1.35892        0.64716
O         -2.19577       -2.40661        0.90311
H         -3.09088       -2.62472        0.56347
H         -2.01642       -1.52558        0.51645
O          1.11746        2.32362        2.89854
H          0.37433        1.67633        2.85837
H          0.99305        2.84511        3.69212
C          5.67430       -2.62758       -0.17940
H          4.95882       -3.29913        0.30414
H          6.64655       -2.75362        0.30146
H          5.76857       -2.93563       -1.22396
C          5.18835       -1.19145       -0.07087
H          5.09365       -0.88257        0.97196
H          4.20980       -1.06819       -0.53711
H          6.22870       -0.37761       -2.07598
S          6.34063        0.03414       -0.80060
