65
CH2OH+ASW1_dO2
O          2.02021        0.88848        2.25673
H          1.41137        1.35312        1.67053
H          1.42192        0.39107        2.85134
O         -0.88267        3.07422       -1.76445
H         -1.04918        4.00210       -1.93819
H         -1.76057        2.61937       -1.83739
O          2.99074       -2.42709       -2.49664
H          2.97788       -1.44973       -2.43682
H          3.52913       -2.65082       -3.25657
O         -2.07041        0.92227        1.89152
H         -2.17502        0.01825        1.52796
H         -2.93392        1.34365        1.74602
O          1.91830        2.64528       -2.24712
H          0.95205        2.66210       -2.30713
H          2.11805        3.18664       -1.46873
O         -0.66921       -2.86411        2.82076
H          0.06218       -2.95060        2.16169
H         -0.69428       -3.66954        3.33761
O          4.04691        0.08591        0.73745
H          3.31489        0.33073        1.35742
H          4.80032        0.61805        0.99719
O         -0.01949        2.12930        0.63980
H         -0.37001        2.54112       -0.17749
H         -0.79939        1.81688        1.15443
O         -3.25773        1.92105       -1.71216
H         -3.70901        1.97951       -0.85446
H         -3.43989        1.02743       -2.04753
O         -0.06825       -0.21068        3.64984
H         -0.28960       -1.14513        3.51734
H         -0.83685        0.28077        3.33022
O          3.68319       -2.68376        0.29063
H          3.62879       -2.72903       -0.67531
H          3.99927       -1.78914        0.49152
O         -1.48001       -1.85201       -1.54751
H         -0.80634       -1.17432       -1.33446
H         -0.93029       -2.62446       -1.80420
O         -2.43983       -1.68132        1.04577
H         -2.07435       -1.90736        0.16831
H         -1.97403       -2.23305        1.69895
O          0.52134       -0.35467       -0.54412
H          0.33618        0.49565       -0.10827
H          1.34994       -0.21046       -1.04622
O          0.48249       -3.69969       -1.80391
H          1.28113       -3.33016       -2.20956
H          0.66742       -3.64463       -0.85259
O         -4.95573       -0.82495        0.18982
H         -4.73511       -0.89943       -0.75218
H         -4.23763       -1.30048        0.63940
O          2.90162        0.16848       -1.76852
H          2.65336        1.07115       -2.06624
H          3.42789        0.26629       -0.95201
O         -4.52985        1.70483        0.82311
H         -5.29053        2.19433        1.13721
H         -4.82878        0.77721        0.63962
O          1.03496       -2.73054        0.81420
H          2.01618       -2.78872        0.79290
H          0.84076       -1.84142        0.45981
O         -3.75733       -0.76668       -2.38607
H         -2.91186       -1.24351       -2.21267
H         -4.08337       -1.06742       -3.23482
C          3.27469        3.70601        1.07201
H          3.20043        3.24754        2.05076
H          4.06364        4.39622        0.80803
O          2.13356        3.86226        0.34551
H          1.40651        3.34177        0.72551
