65
CH2OH+ASW1_dO7
O          2.52578        0.11869        3.07174
H          1.87559        0.80293        2.84943
H          1.97835       -0.68701        3.13499
O         -0.30936        3.82458        0.52837
H         -0.61752        4.63691        0.93292
H         -1.09942        3.42099        0.08456
O          4.26216       -0.18522       -2.61787
H          4.09609        0.60422       -2.06316
H          4.91077        0.06837       -3.27530
O         -1.66144       -0.22953        2.05983
H         -1.62999       -0.78893        1.25920
H         -2.54253        0.17600        2.04979
O          2.26966        3.96088       -0.53089
H          1.35549        3.89172       -0.19885
H          2.25678        4.63473       -1.21019
O          0.23229       -3.69108        1.01322
H          1.03695       -3.38688        0.52704
H          0.27367       -4.64536        1.07760
O          4.63891        0.38675        1.53580
H          3.84703        0.23185        2.12235
H          5.36626        0.59482        2.12356
O          0.40639        1.52524        1.94411
H          0.13881        2.40056        1.62073
H         -0.40712        0.99144        2.05990
O         -2.47560        2.69722       -0.49068
H         -3.05512        2.25059        0.14901
H         -2.47517        2.12961       -1.27800
O          0.50983       -1.79772        3.16091
H          0.41550       -2.53277        2.53800
H         -0.31395       -1.29890        3.08300
O          4.75511       -1.80183       -0.26919
H          4.77971       -1.35009       -1.12494
H          4.83742       -1.09715        0.39401
O         -0.27025       -0.52973       -2.14487
H          0.29493       -0.07860       -1.47991
H          0.38997       -0.99882       -2.70111
O         -1.56859       -1.93665       -0.14519
H         -1.04932       -1.58721       -0.89596
H         -1.07726       -2.70230        0.20431
O          1.41551        0.22905       -0.21771
H          1.07370        0.67112        0.58896
H          2.22521        0.71788       -0.46037
O          1.91847       -1.81452       -3.08739
H          2.68897       -1.22769       -3.11142
H          2.01948       -2.28233       -2.24204
O         -3.98296       -0.88036       -0.89538
H         -3.61424       -0.35969       -1.63101
H         -3.27333       -1.49611       -0.63479
O          3.71508        1.64935       -0.70865
H          3.32347        2.54109       -0.63106
H          4.15565        1.41626        0.13094
O         -4.01915        0.97302        1.13454
H         -4.93629        1.05088        1.41207
H         -4.04702        0.30209        0.42210
O          2.12573       -2.43476       -0.32477
H          3.09949       -2.40053       -0.20295
H          1.84484       -1.51126       -0.16494
O         -2.52241        0.77829       -2.59659
H         -1.64632        0.32098       -2.57840
H         -2.70245        1.01155       -3.50802
C         -7.64101       -0.73449       -0.45601
H         -8.52368       -0.48575        0.11696
H         -7.66638       -1.50229       -1.22193
O         -6.47045       -0.49468        0.18214
H         -5.71857       -0.81587       -0.34304
