65
CH2OH+ASW1_dH4
O          1.76703       -0.50229       -2.89547
H          0.80084       -0.58352       -2.92852
H          1.89117        0.39523       -2.53274
O         -3.28391       -1.90345       -2.00061
H         -3.92437       -2.04816       -2.69853
H         -3.71053       -1.27622       -1.35971
O          1.81751       -3.74459        2.15057
H          1.33288       -3.89801        1.31399
H          1.95088       -4.60250        2.55464
O         -1.35058        2.12485       -1.41547
H         -1.14981        2.15109       -0.45736
H         -2.26232        2.44782       -1.48882
O         -1.77517       -4.15348       -1.34913
H         -2.30625       -3.35613       -1.53161
H         -2.37799       -4.79183       -0.96837
O          1.98386        2.57279        0.83201
H          2.33380        1.70176        1.11718
H          2.70222        3.21876        0.85099
O          2.75260       -2.70375       -1.83871
H          2.42333       -1.83965       -2.21092
H          3.29772       -3.09385       -2.52308
O         -0.94115       -0.40390       -2.29148
H         -1.76779       -0.90692       -2.36565
H         -1.18018        0.52112       -2.06953
O         -4.39012       -0.11217       -0.40615
H         -4.35391        0.80954       -0.71148
H         -4.21235       -0.07577        0.54890
O          1.51320        2.09230       -1.89056
H          1.66637        2.24364       -0.94100
H          0.57793        2.29855       -2.01735
O          3.82812       -2.19781        0.75266
H          3.32504       -2.81724        1.30028
H          3.57645       -2.40276       -0.16215
O         -1.11586       -0.24023        2.32322
H         -0.81019       -0.63581        1.47847
H         -0.47986       -0.61120        2.97256
O         -0.70929        2.30453        1.27363
H         -0.74132        1.45730        1.75692
H          0.22640        2.57923        1.25804
O          0.13367       -1.10309        0.11535
H         -0.20846       -0.83237       -0.76247
H          0.33230       -2.05480        0.03325
O          1.05326       -1.31920        3.55109
H          1.22457       -2.21348        3.22103
H          1.64804       -0.76684        3.01615
O         -3.39762        2.97182        1.57163
H         -3.61457        2.11990        1.98262
H         -2.42600        2.99990        1.58200
O          0.72834       -3.75589       -0.32435
H         -0.11376       -4.00756       -0.75121
H          1.39913       -3.57791       -1.01059
O         -4.07092        2.64965       -0.96354
H         -4.71993        3.26601       -1.30327
H         -3.90130        2.89013       -0.01635
O          2.33865       -0.01151        1.39738
H          3.05024       -0.64644        1.17277
H          1.58623       -0.31577        0.85347
O         -3.71993        0.24264        2.30735
H         -2.77568       -0.02323        2.42434
H         -4.20926       -0.12643        3.04309
O          4.00584        4.40847        0.14213
C          4.24504        4.20305       -1.19161
H          3.44285        3.68875       -1.70371
H          4.91385        4.88997       -1.69675
H          4.73297        4.88197        0.54775
