64
H2CO+ASW9_dH8
O          2.27297       -0.25451        2.11192
H          2.81833       -0.85983        1.57160
H          1.35533       -0.56955        2.02198
O         -4.44827       -1.46924       -1.31181
H         -3.68096       -1.65353       -1.87654
H         -4.40817       -0.50281       -1.17071
O         -1.89136        0.97668        3.09958
H         -2.79766        0.74339        2.76059
H         -1.98112        1.19551        4.02748
O         -0.40750       -0.83565        1.72318
H         -0.78987       -1.73038        1.73778
H         -0.91015       -0.29497        2.36296
O         -1.65963       -3.29290        1.41029
H         -2.61684       -3.08556        1.31569
H         -1.59527       -4.04194        2.00407
O          2.45534        0.03521       -2.69898
H          2.28799       -0.87453       -2.40590
H          3.29559        0.28930       -2.29207
O         -1.89481       -1.57544       -2.49523
H         -1.71095       -1.31395       -3.39860
H         -1.57603       -0.84364       -1.91342
O         -1.17358        3.82694       -1.01014
H         -0.50469        3.32558       -1.49411
H         -1.02759        3.56699       -0.08243
O          2.14327       -2.64629       -1.68913
H          2.46300       -3.33096       -2.27863
H          1.23484       -2.93132       -1.42159
O          3.83123       -1.59590        0.27903
H          3.27815       -2.12186       -0.32252
H          3.99681       -0.76809       -0.20538
O         -1.17312        0.26783       -0.70326
H         -0.47201        0.90733       -0.95934
H         -0.87351       -0.12453        0.14063
O         -0.33973       -3.45334       -1.15000
H         -0.93684       -2.92121       -1.70344
H         -0.74608       -3.46914       -0.27106
O         -0.45691        2.87422        1.51358
H         -0.97858        2.25507        2.04770
H          0.41555        2.47977        1.40478
O          2.40106        2.07463        0.95891
H          2.37651        1.21171        1.46931
H          2.73140        2.75569        1.54751
O         -3.74918        3.52601       -1.72523
H         -4.23781        4.32634       -1.53629
H         -2.80711        3.71903       -1.51753
O         -3.81280        1.08494       -0.55240
H         -2.84747        0.94466       -0.59702
H         -3.96719        1.96403       -0.95692
O         -4.17566        0.25648        2.02733
H         -4.18485        0.66556        1.13845
H         -4.24491       -0.69532        1.86185
O         -4.22127       -2.48219        1.07868
H         -4.99383       -3.01688        1.26748
H         -4.32919       -2.15533        0.13802
O          4.34156        0.92441       -0.80009
H          3.78475        1.49143       -0.24259
H          5.25584        1.03276       -0.49433
O          0.86424        1.87602       -1.46465
H          1.39492        1.26416       -2.01938
H          1.42363        2.08140       -0.70194
C          6.87969       -0.46366        1.00790
O          6.84716        0.60808        0.45500
H          6.03303       -1.17007        0.95940
H          7.77072       -0.77026        1.58453
