64
H2CO+ASW9_dH6
O         -2.18927       -1.03416        2.15612
H         -3.06456       -0.58924        2.16749
H         -1.53921       -0.32086        2.02797
O          2.62531        2.72062       -1.89436
H          1.70264        2.82333       -2.18093
H          2.80132        1.76592       -1.97824
O          2.09757       -0.79919        2.54390
H          2.77999       -0.34883        1.98595
H          2.52095       -1.06104        3.36181
O         -0.06867        0.69396        1.77449
H          0.05080        1.64773        1.92084
H          0.68532        0.24523        2.19968
O          0.49001        3.41329        1.80643
H          1.39005        3.46362        1.41525
H          0.47933        4.00466        2.56000
O         -4.05601        0.05626       -1.99041
H         -3.97160        0.83892       -1.42260
H         -4.66164       -0.53193       -1.51721
O         -0.15173        2.55750       -2.30219
H         -0.56030        2.45637       -3.16328
H         -0.17053        1.66895       -1.86870
O          0.49036       -3.24263       -1.28985
H         -0.15979       -2.73611       -1.78933
H          0.33651       -3.01973       -0.35503
O         -3.90442        2.22300       -0.13136
H         -4.55623        2.91418       -0.25818
H         -3.03651        2.69029       -0.07447
O         -4.58211        0.18210        1.71334
H         -4.36855        0.94637        1.15333
H         -5.03707       -0.44009        1.12821
O         -0.01555        0.27129       -0.95081
H         -0.66502       -0.42518       -1.20720
H         -0.07894        0.38637        0.01748
O         -1.60819        3.60067       -0.15216
H         -1.11906        3.39519       -0.96666
H         -0.94333        3.60402        0.55149
O          0.21895       -2.63302        1.44588
H          0.98157       -2.12912        1.76951
H         -0.54023       -2.24626        1.89452
O         -2.86685       -2.88739        0.36036
H         -2.54876       -2.24618        1.04239
H         -2.45378       -3.73195        0.54958
O          3.12591       -2.62513       -1.86751
H          3.64451       -2.91322       -1.10488
H          2.22124       -2.96453       -1.71877
O          2.64587       -0.01181       -1.51287
H          1.68127       -0.03953       -1.35414
H          2.89287       -0.93307       -1.76738
O          3.69033        0.55373        0.91123
H          3.33040        0.33347        0.02089
H          3.57370        1.51239        0.99055
O          2.94714        3.32545        0.62980
H          3.58996        4.03294        0.69883
H          2.82475        3.15599       -0.34840
O         -5.31092       -1.81166       -0.21221
H         -4.55010       -2.39601       -0.02918
H         -6.08393       -2.37024       -0.29748
O         -1.81055       -1.50862       -1.80799
H         -2.55978       -0.93318       -2.06660
H         -2.18540       -2.07155       -1.10874
C          5.45626       -1.53137        0.24199
O          4.87674       -2.56674        0.44317
H          6.11615       -1.07940        1.00126
H          5.36220       -0.99073       -0.71563
