64
H2CO+ASW9_dH3
O          1.97890       -1.93936       -2.22208
H          2.63569       -1.24193       -2.43186
H          1.10520       -1.51766       -2.30219
O         -3.56049        2.26308        0.58939
H         -2.66542        2.62460        0.71653
H         -3.56111        1.43598        1.10576
O         -2.42721       -2.80468       -1.75598
H         -3.17739       -2.23759       -1.42562
H         -2.80677       -3.50115       -2.29215
O         -0.57158       -0.85132       -2.16092
H         -0.89846       -0.08708       -2.66812
H         -1.25138       -1.54859       -2.22268
O         -1.64419        1.47016       -3.22235
H         -2.52689        1.54934       -2.79345
H         -1.76610        1.68045       -4.14903
O          3.41059        1.13290        1.06206
H          3.16735        1.60516        0.24515
H          4.15167        0.55952        0.81489
O         -0.81657        2.69496        0.74337
H         -0.34339        3.02182        1.52465
H         -0.67177        1.72542        0.72034
O         -0.30098       -2.68689        2.75366
H          0.38688       -2.00939        2.74299
H         -0.35908       -2.97816        1.82659
O          2.81991        2.37873       -1.38189
H          3.28330        3.19271       -1.58491
H          1.86147        2.56743       -1.56141
O          3.90340       -0.00887       -2.40274
H          3.52891        0.85189       -2.15246
H          4.48855       -0.25132       -1.67211
O         -0.59625       -0.00093        0.48047
H          0.18413       -0.40059        0.91763
H         -0.56648       -0.29681       -0.44952
O          0.28754        3.02416       -1.75269
H         -0.13384        3.05973       -0.87229
H         -0.32812        2.53096       -2.31413
O         -0.29670       -3.36808        0.01491
H         -1.10877       -3.25353       -0.50656
H          0.38209       -2.91597       -0.49088
O          2.99801       -2.74663        0.04770
H          2.58709       -2.53029       -0.83421
H          2.94108       -3.69561        0.16948
O         -2.66440       -1.79427        3.73514
H         -3.15747       -2.50830        4.13745
H         -1.80449       -2.17367        3.45071
O         -3.13826       -0.31286        1.49854
H         -2.20226       -0.30511        1.21892
H         -3.14961       -0.80526        2.34352
O         -4.24342       -1.15058       -0.85416
H         -3.97499       -0.92702        0.06091
H         -4.25688       -0.30067       -1.31932
O         -3.98879        1.54097       -1.87122
H         -4.77613        1.98787       -2.18561
H         -3.83014        1.87894       -0.93920
O          5.06310       -0.94778        0.06177
H          4.46146       -1.71562        0.13078
H          5.94700       -1.26215        0.25349
O          1.66733       -0.91223        1.69061
H          2.24794       -0.13487        1.56937
H          2.11669       -1.62873        1.21096
C          1.77356        2.93060        3.35455
O          0.69807        3.38595        3.05468
H          2.21929        3.15195        4.34157
H          2.35568        2.28839        2.67246
