64
H2CO+ASW4_dH7
O          6.00686        0.75400       -1.70248
H          5.09673        1.02228       -1.97105
H          6.44592        0.44509       -2.49402
O          3.47146        1.37029       -2.31521
H          2.89922        0.61610       -2.11883
H          3.11357        2.12275       -1.80888
O          1.84447        1.75622        1.58867
H          2.38065        0.97725        1.34478
H          1.38914        1.45728        2.38930
O          0.00201       -1.97544        1.12883
H          0.09562       -2.08655        0.16628
H         -0.95997       -2.06956        1.28660
O          0.36863       -0.05478        3.15402
H          0.27300       -0.52612        2.30741
H          0.94021       -0.64063        3.66199
O         -2.84617        0.10591       -0.42842
H         -1.94877        0.20200       -0.80923
H         -2.92904        0.84568        0.20935
O         -2.71850       -1.93238        1.37541
H         -2.82798       -1.22916        0.70047
H         -2.78771       -1.42996        2.21468
O         -2.48871        0.01779        3.27173
H         -1.54364        0.05286        3.48214
H         -2.65297        0.82981        2.76720
O         -0.43700        0.49109       -1.68606
H         -0.67789        0.12821       -2.55284
H          0.39472        0.03512       -1.44319
O         -3.63473       -1.79524       -2.29866
H         -3.64445       -1.06839       -1.65548
H         -3.46822       -2.58955       -1.76822
O          2.47724        3.41820       -0.67738
H          2.51696        3.09481        0.23223
H          1.54528        3.63077       -0.79134
O         -0.19282       -2.84348       -1.53211
H         -0.51348       -2.35134       -2.30556
H         -0.93715       -3.40424       -1.26760
O         -2.70167       -3.84807       -0.51126
H         -2.80588       -3.36544        0.33339
H         -3.07929       -4.71916       -0.38484
O          2.03655       -2.43158        2.81893
H          1.27774       -2.55499        2.21402
H          2.33305       -3.29837        3.09591
O         -2.69978        2.15169        1.35725
H         -3.34181        2.86571        1.23254
H         -1.84067        2.47251        1.00503
O          3.21858       -0.60201        1.07895
H          3.00232       -1.26691        1.75479
H          4.19977       -0.54897        1.00274
O          5.86728       -0.38686        0.71871
H          5.99255       -0.02468       -0.18731
H          6.37191        0.18648        1.29616
O          1.92454       -0.83065       -1.26460
H          1.73050       -1.74880       -1.47803
H          2.40261       -0.82889       -0.40452
O         -1.37138       -1.28704       -3.60035
H         -1.37218       -1.42072       -4.54824
H         -2.28335       -1.47152       -3.26636
O         -0.33467        2.63446        0.08970
H         -0.39952        2.03983       -0.67516
H          0.41050        2.27773        0.61030
C         -4.89763        3.23671       -0.83409
O         -4.72292        3.78428        0.22294
H         -4.33075        2.33186       -1.11966
H         -5.63577        3.61824       -1.56114
