64
H2CO+ASW4_dH2
O         -5.35091       -1.48240       -0.71505
H         -4.52694       -1.99316       -0.50520
H         -5.98440       -2.11487       -1.05454
O         -3.11165       -2.71223       -0.02515
H         -2.34049       -2.47574       -0.56382
H         -2.88255       -2.34345        0.85008
O         -2.18719        1.21108        1.04947
H         -1.99363        1.21088        0.09281
H         -3.11555        1.48094        1.12120
O          1.52877        0.64335       -1.83855
H          1.49968       -0.32708       -1.78492
H          2.44113        0.86823       -1.56631
O          0.54050        2.88746       -0.39187
H          0.71053        1.96703       -0.64043
H          0.13208        3.25194       -1.18304
O          3.12896       -0.11457        1.58436
H          2.21509       -0.42677        1.45769
H          3.07311        0.65004        2.18763
O          3.99365        1.06254       -0.72813
H          3.73402        0.62726        0.10999
H          3.93065        2.01610       -0.49887
O          3.19664        3.42552        0.32962
H          2.26957        3.43932        0.03245
H          3.12120        3.20475        1.26959
O          0.56564       -1.33039        1.33001
H          1.00406       -2.19912        1.29722
H          0.08599       -1.27795        0.47740
O          4.49951       -2.38470        0.77093
H          4.24992       -1.56967        1.23693
H          4.73167       -2.09646       -0.12499
O         -2.28811       -1.31840        2.20363
H         -2.22612       -0.42369        1.81759
H         -1.36880       -1.56962        2.34261
O          1.91305       -2.13023       -1.82934
H          1.92514       -2.69597       -1.03931
H          2.84542       -1.98818       -2.05427
O          4.65046       -1.27165       -1.88021
H          4.59341       -0.32457       -1.63669
H          5.36646       -1.35655       -2.51064
O         -0.12955        2.26171       -3.19483
H          0.59331        1.65373       -2.93856
H         -0.04785        2.43801       -4.13154
O          2.54751        2.24929        2.86954
H          2.69701        2.55445        3.76481
H          1.58698        2.02714        2.80177
O         -1.95826        0.86947       -1.69221
H         -1.48637        1.44032       -2.32358
H         -2.91820        0.88880       -1.90372
O         -4.64653        0.88841       -1.91459
H         -4.95129        0.01571       -1.59805
H         -4.97818        1.50348       -1.25509
O         -0.80555       -1.49202       -1.08903
H         -0.14918       -1.77709       -1.73480
H         -1.19340       -0.64759       -1.41055
O          2.11659       -3.51463        0.63357
H          2.06750       -4.45592        0.80208
H          3.05882       -3.23123        0.75385
O          0.11678        1.21711        2.63369
H          0.22963        0.29670        2.36242
H         -0.64359        1.52906        2.11672
O         -5.02873        1.26156        1.08284
C         -5.41446        0.18012        1.46020
H         -6.47886       -0.09544        1.40706
H         -4.72306       -0.56482        1.88635
