64
H2CO+ASW4_dH6
O          5.94343       -0.70746       -1.20493
H          5.13183       -0.42226       -1.68664
H          6.33041       -1.41686       -1.71645
O          3.64928        0.05239       -2.37028
H          2.90123       -0.40445       -1.96006
H          3.48005        1.00504       -2.25070
O          1.84683        2.38440        0.81986
H          2.24163        1.51170        1.01867
H          1.25068        2.51810        1.57114
O         -1.06504       -0.58135        1.67452
H         -1.05862       -1.11668        0.86272
H         -2.00052       -0.30989        1.76190
O         -0.10631        1.77212        2.74579
H         -0.30838        0.93920        2.27468
H          0.21748        1.50990        3.60952
O         -2.95291        1.23266       -1.02375
H         -2.06193        0.87300       -1.21038
H         -2.84437        2.19834       -0.96389
O         -3.61218        0.43991        1.47621
H         -3.41998        0.73166        0.55797
H         -3.52454        1.27579        1.97574
O         -2.67955        2.90510        2.23184
H         -1.79207        2.67936        2.54804
H         -2.53012        3.33467        1.37633
O         -0.55586        0.18175       -1.85152
H         -0.93087       -0.44176       -2.49289
H          0.16058       -0.30208       -1.38900
O         -4.43993       -0.81035       -2.12783
H         -4.12231        0.06747       -1.85512
H         -4.68151       -1.24441       -1.29634
O          3.11137        2.75337       -1.82394
H          3.08221        2.86424       -0.86648
H          2.21729        2.99436       -2.09446
O         -1.87552       -2.47279       -0.25950
H         -1.89004       -2.33906       -1.22108
H         -2.80303       -2.42435        0.02364
O         -4.54761       -1.87898        0.54779
H         -4.40683       -1.07318        1.08755
H         -5.22729       -2.39594        0.98099
O          1.12449       -1.73954        2.94689
H          0.25109       -1.40162        2.68999
H          1.21533       -2.54469        2.42237
O         -2.11268        3.80409       -0.47537
H         -2.32395        4.66656       -0.83411
H         -1.20536        3.57223       -0.79120
O          2.76210       -0.11189        1.46231
H          2.30214       -0.63710        2.14730
H          3.72601       -0.30178        1.51799
O          5.39808       -0.63840        1.42543
H          5.66132       -0.72503        0.48258
H          6.01901       -0.02311        1.81539
O          1.56540       -1.11639       -0.73157
H          1.47052       -2.04990       -0.50229
H          2.00882       -0.72136        0.05430
O         -2.14287       -1.80844       -3.00027
H         -2.16462       -2.30171       -3.82035
H         -3.05927       -1.47841       -2.82276
O          0.21754        2.80702       -1.33476
H         -0.02044        1.94874       -1.72450
H          0.76765        2.58537       -0.55314
C         -0.07407       -4.22070        0.39747
O          0.90325       -3.56448        0.66629
H         -0.28950       -4.53970       -0.63319
H         -0.77572       -4.55824        1.17573
