62
CO+ASW1_dH2
O          0.68106        1.83826        3.07452
H         -0.10540        2.09981        2.57077
H          0.46172        0.93093        3.36051
O         -2.68774        3.19133       -0.81308
H         -3.34922        3.88038       -0.73671
H         -3.16435        2.38495       -1.14147
O          3.59096        0.72040       -1.98044
H          3.04416        1.50268       -1.76328
H          4.25018        1.00361       -2.61494
O         -2.76136       -0.45828        1.85421
H         -2.35450       -1.15653        1.30211
H         -3.70408       -0.47480        1.62621
O         -0.17009        4.07685       -1.62951
H         -1.04402        3.72912       -1.37251
H         -0.27629        4.43978       -2.50861
O          0.44959       -2.97483        2.25527
H          1.16734       -2.51175        1.75931
H          0.82333       -3.77289        2.62937
O          2.83225        2.52481        1.73525
H          2.04299        2.22307        2.26585
H          3.28564        3.16954        2.27982
O         -1.49280        1.87953        1.34485
H         -1.98319        2.44613        0.72817
H         -2.06274        1.10979        1.55547
O         -4.01815        1.02056       -1.52265
H         -4.49856        0.56165       -0.81386
H         -3.63676        0.31788       -2.07512
O         -0.47549       -0.63025        3.62960
H         -0.15028       -1.47948        3.29668
H         -1.37980       -0.56174        3.29600
O          4.13585        0.18775        0.79597
H          4.15539        0.36740       -0.15548
H          3.80536        1.00697        1.19997
O         -0.48529       -1.33424       -1.83424
H         -0.27356       -0.52694       -1.31717
H          0.39848       -1.62884       -2.14152
O         -1.58790       -2.51550        0.42275
H         -1.09510       -2.22925       -0.37005
H         -0.93266       -2.87708        1.04568
O          0.35853        0.57129       -0.15187
H         -0.28834        1.03809        0.41951
H          0.96621        1.26315       -0.47557
O          2.18299       -1.80195       -2.07742
H          2.65428       -0.96822       -2.22416
H          2.23791       -1.92353       -1.11477
O         -4.10273       -2.69991       -0.78798
H         -3.78292       -2.33023       -1.62632
H         -3.29258       -2.90927       -0.29478
O          2.02792        2.63106       -0.88335
H          1.32716        3.26034       -1.14308
H          2.32686        2.83724        0.02280
O         -5.18937       -0.63705        0.46103
H         -6.11468       -0.72437        0.69078
H         -4.91288       -1.47855        0.01620
O          1.98626       -1.46760        0.73003
H          2.83173       -1.00817        0.92029
H          1.36444       -0.73603        0.54135
O         -2.91567       -1.19182       -2.88529
H         -1.96292       -1.25750       -2.63583
H         -2.96951       -1.32568       -3.83196
O          5.78078       -1.94437       -1.37371
C          5.17908       -2.59665       -0.68019
