62
CO+ASW1_dH6
O         -2.31811        0.05062       -3.12521
H         -1.66578        0.72873       -2.88968
H         -1.78215       -0.76492       -3.14771
O          0.49311        3.78325       -0.58692
H          0.82622        4.57804       -1.00593
H          1.26594        3.37244       -0.11851
O         -4.26497       -0.04477        2.50900
H         -4.06334        0.72295        1.93581
H         -4.92957        0.24330        3.13544
O          1.81456       -0.32090       -1.93325
H          1.74260       -0.86120       -1.12081
H          2.70011        0.07381       -1.89525
O         -2.11363        3.99523        0.38823
H         -1.19131        3.89776        0.08742
H         -2.09996        4.66023        1.07627
O         -0.18800       -3.73567       -0.88711
H         -0.99835       -3.40561       -0.42837
H         -0.24359       -4.69059       -0.92527
O         -4.47721        0.39890       -1.67210
H         -3.66768        0.21160       -2.22437
H         -5.17906        0.59982       -2.29239
O         -0.22988        1.45448       -1.95005
H          0.03912        2.33572       -1.64494
H          0.58025        0.90609       -2.01800
O          2.60599        2.63157        0.50548
H          3.18285        2.13832       -0.10148
H          2.56073        2.09484        1.31421
O         -0.32873       -1.89674       -3.08623
H         -0.27807       -2.61532       -2.43900
H          0.49659       -1.40605       -2.97828
O         -4.70432       -1.72625        0.19412
H         -4.75117       -1.24686        1.03365
H         -4.74403       -1.04139       -0.49346
O          0.28396       -0.49994        2.21929
H         -0.25220       -0.06473        1.52140
H         -0.40062       -0.93796        2.76955
O          1.61725       -1.97588        0.28223
H          1.09825       -1.60642        1.02227
H          1.11866       -2.74040       -0.05673
O         -1.32910        0.22922        0.21233
H         -0.94737        0.64139       -0.59196
H         -2.13613        0.74181        0.40932
O         -1.97320       -1.70947        3.12288
H         -2.72972       -1.10518        3.09541
H         -2.05075       -2.20322        2.29005
O          4.06733       -0.84564        0.98924
H          3.68053       -0.32414        1.71103
H          3.36973       -1.47926        0.75226
O         -3.61282        1.71790        0.56771
H         -3.19656        2.59740        0.47852
H         -4.02545        1.46800       -0.28085
O          4.18897        0.86548       -1.04064
H          5.06793        1.00572       -1.39483
H          4.27898        0.20526       -0.30916
O         -2.09294       -2.41582        0.37384
H         -3.06008       -2.36367        0.21325
H         -1.78573       -1.50330        0.19996
O          2.52860        0.83129        2.68102
H          1.66063        0.36128        2.65333
H          2.68745        1.07687        3.59290
O          7.05872       -0.43369       -0.27938
C          7.26960       -1.18776        0.53154
