62
CO+ASW1_dH3
O          1.85731       -2.06418        2.65106
H          1.11960       -1.46749        2.85142
H          1.43331       -2.75725        2.10975
O         -1.44282        2.11177        2.76254
H         -1.85912        2.46900        3.54832
H         -2.16746        1.98503        2.09693
O          3.75963        1.65719       -1.61848
H          3.46439        1.84967       -0.70467
H          4.38456        2.34187       -1.85901
O         -2.19714       -2.03521        1.17108
H         -2.06426       -1.92507        0.20805
H         -3.13153       -1.82202        1.32148
O          1.05775        3.24419        2.21811
H          0.18841        2.83509        2.38295
H          0.87346        4.03088        1.70341
O          0.23301       -3.76753       -1.63818
H          0.98860       -3.13697       -1.72241
H          0.41210       -4.51447       -2.20955
O          3.94208       -0.64089        1.92356
H          3.17002       -1.22332        2.16771
H          4.61660       -0.80545        2.58360
O         -0.41043       -0.46479        2.46914
H         -0.79294        0.37994        2.75589
H         -1.14074       -1.01218        2.11112
O         -3.41000        1.63724        1.05809
H         -3.90822        0.81371        1.19034
H         -3.31754        1.73069        0.09495
O          0.14656       -3.73793        1.23250
H          0.18737       -3.88628        0.27650
H         -0.73736       -3.38121        1.39148
O          4.43071       -1.05249       -0.84680
H          4.40848       -0.14761       -1.18976
H          4.38636       -0.96187        0.11903
O         -0.69244        0.63021       -2.01616
H         -0.21447        0.56051       -1.16091
H          0.04008        0.71756       -2.66355
O         -1.80610       -1.88075       -1.56807
H         -1.35397       -1.06975       -1.86843
H         -1.20174       -2.62259       -1.74875
O          0.82491        0.07651        0.11200
H          0.40506       -0.15617        0.96795
H          1.56066        0.67723        0.33832
O          1.69553        0.53342       -3.30200
H          2.37273        1.05597       -2.84712
H          1.84608       -0.36658       -2.96873
O         -4.41943       -0.88012       -1.58268
H         -4.12828        0.01987       -1.79898
H         -3.63498       -1.42911       -1.74565
O          2.89347        1.68378        0.93619
H          2.35212        2.26328        1.50880
H          3.34156        1.00766        1.47906
O         -4.74118       -0.86685        1.04402
H         -5.61898       -1.08017        1.36120
H         -4.76130       -0.92097        0.05461
O          1.93465       -1.75059       -1.62966
H          2.88724       -1.70862       -1.39633
H          1.50915       -1.20408       -0.93877
O         -3.13432        1.64453       -1.74647
H         -2.20813        1.36834       -1.94238
H         -3.30827        2.41806       -2.28441
O          0.00823        4.09685       -0.84496
C         -0.77307        3.94669       -1.64201
