63
HCS+ASW1_dH5
O         -2.16135       -0.42053        2.24517
H         -1.68721       -1.11132        1.75695
H         -1.45863       -0.01740        2.79010
O          0.16745       -3.23070       -1.64617
H          0.10733       -4.18672       -1.67883
H          1.13446       -3.00656       -1.69183
O         -2.10899        3.22219       -2.48118
H         -2.31104        2.26528       -2.46131
H         -2.58219        3.59094       -3.22773
O          2.04052       -1.24233        1.95029
H          2.38968       -0.39996        1.59486
H          2.74818       -1.88996        1.80562
O         -1.95886       -1.90111       -2.77395
H         -1.13850       -2.32455       -2.45044
H         -2.10468       -2.23197       -3.66042
O          1.51605        2.72630        2.84784
H          0.82886        3.01696        2.20086
H          1.71643        3.47116        3.41482
O         -3.75018        0.82770        0.56857
H         -3.13674        0.40413        1.23147
H         -4.63280        0.55590        0.82481
O         -0.30060       -1.79359        0.70949
H         -0.19678       -2.44790        0.00075
H          0.56033       -1.72729        1.17550
O          2.74354       -2.66658       -1.60262
H          3.20109       -2.81371       -0.75809
H          3.10584       -1.83586       -1.95389
O          0.18274        0.28732        3.55874
H          0.63274        1.13878        3.45843
H          0.83023       -0.37266        3.27768
O         -2.81087        3.50308        0.31260
H         -2.71231        3.57876       -0.64733
H         -3.26622        2.65827        0.45783
O          2.05593        1.55615       -1.47339
H          1.22717        1.09538       -1.21965
H          1.73100        2.44239       -1.74160
O          3.03888        1.19432        1.09606
H          2.71164        1.48679        0.22381
H          2.69080        1.82376        1.75213
O         -0.25106        0.65509       -0.46006
H         -0.29335       -0.21571       -0.00957
H         -1.05453        0.70458       -1.01064
O          0.62287        3.84799       -1.74593
H         -0.23743        3.68935       -2.16174
H          0.41621        3.84379       -0.79694
O          5.17095       -0.35593        0.16450
H          4.90807       -0.24736       -0.76342
H          4.64261        0.30533        0.64102
O         -2.60368        0.62748       -1.89128
H         -2.48963       -0.26179       -2.27228
H         -3.16846        0.56412       -1.09486
O          4.16447       -2.70321        0.85007
H          4.79145       -3.35600        1.16222
H          4.67278       -1.87741        0.64412
O         -0.19157        3.07495        0.86533
H         -1.13669        3.33942        0.85605
H         -0.20833        2.16201        0.51479
O          3.85700       -0.18290       -2.34834
H          3.19986        0.52933       -2.16061
H          4.23448        0.00073       -3.20909
C         -3.35940       -3.17539       -0.07253
H         -3.03998       -2.60950       -0.95136
S         -4.42846       -2.93042        1.03795
