63
HCS+ASW1_dH7
O         -3.72480       -1.75840        1.10679
H         -3.15836       -2.24448        0.48835
H         -3.16946       -1.70693        1.90810
O         -0.40906       -2.83040       -2.91539
H         -0.43030       -3.63758       -3.43169
H          0.53991       -2.69920       -2.65284
O         -2.25184        3.49219       -1.42293
H         -2.50447        2.63803       -1.83174
H         -2.51017        4.17992       -2.03748
O          0.47167       -2.91156        1.48515
H          0.90200       -2.04915        1.65493
H          1.19339       -3.49627        1.20520
O         -2.10934       -0.84797       -3.87967
H         -1.48168       -1.50995       -3.53354
H         -1.77675       -0.59188       -4.73983
O         -0.27825        0.38638        3.88132
H         -0.72207        1.03331        3.28321
H         -0.25721        0.76759        4.75923
O         -4.76132        0.34982       -0.08220
H         -4.36455       -0.42190        0.40938
H         -5.70841        0.20527       -0.07647
O         -1.51002       -2.61998       -0.34983
H         -1.20168       -2.85203       -1.24079
H         -0.78800       -2.84567        0.27397
O          2.10134       -2.63452       -2.12079
H          2.32981       -3.17814       -1.34834
H          2.58405       -1.79909       -2.00496
O         -1.76423       -1.93295        3.07517
H         -1.29091       -1.18112        3.46089
H         -1.07610       -2.50909        2.71817
O         -3.67039        2.74799        0.99565
H         -3.32433        3.17999        0.20192
H         -4.14783        1.96540        0.67423
O          1.30432        0.94068       -0.24151
H          0.43610        0.51295       -0.40787
H          1.07045        1.89053       -0.21058
O          1.66512       -0.48659        2.08303
H          1.54560        0.15798        1.35879
H          1.16500       -0.14640        2.84448
O         -1.20546        0.07459       -0.25067
H         -1.37017       -0.89273       -0.23936
H         -1.81422        0.44234       -0.91896
O          0.19228        3.41416        0.08438
H         -0.54080        3.54390       -0.53799
H         -0.24795        3.07739        0.88387
O          3.98235       -1.65026        1.02002
H          3.97151       -1.10916        0.21328
H          3.35379       -1.21250        1.61631
O         -3.02348        0.99569       -2.09308
H         -2.82303        0.34857       -2.79826
H         -3.79952        0.69527       -1.58347
O          2.81755       -3.91408        0.30684
H          3.35493       -4.70074        0.40271
H          3.35961       -3.14652        0.62407
O         -1.29290        1.80917        1.88797
H         -2.19299        2.18804        1.78662
H         -1.27732        1.10267        1.21067
O          3.40081       -0.24324       -1.37457
H          2.65547        0.30883       -1.04320
H          3.98769        0.35348       -1.84219
C          3.38007        3.27438       -0.80551
H          2.44218        3.74355       -0.49436
S          4.83322        3.30646       -0.23354
