63
HCS+ASW1_dH6
O         -1.04876       -2.23851        2.45804
H         -0.29675       -2.22566        1.84644
H         -0.93954       -1.39959        2.94535
O          2.02517       -2.02547       -1.83270
H          2.78557       -2.58257       -1.63685
H          2.38552       -1.12024       -2.01150
O         -4.56667       -0.44320       -2.00997
H         -3.88068       -1.14154       -2.00677
H         -5.20377       -0.68247       -2.68384
O          1.89113        0.84326        1.63256
H          1.33480        1.58180        1.31056
H          2.79365        1.06453        1.35183
O         -0.34985       -3.16922       -2.67949
H          0.49472       -2.74782       -2.43245
H         -0.25594       -3.44910       -3.58953
O         -1.61624        2.60592        2.86080
H         -2.32036        2.18030        2.31414
H         -2.04483        3.20959        3.46774
O         -3.20597       -2.91758        1.10790
H         -2.42478       -2.63017        1.65547
H         -3.51593       -3.73569        1.49830
O          0.93079       -1.48033        0.65854
H          1.33677       -1.70775       -0.19725
H          1.38483       -0.67769        0.99636
O          3.01000        0.42744       -2.08767
H          3.49347        0.76865       -1.31811
H          2.47716        1.17274       -2.41041
O         -0.21388        0.19365        3.52079
H         -0.69479        1.02942        3.42855
H          0.65533        0.36154        3.13377
O         -4.93281       -0.67064        0.84967
H         -5.02496       -0.60931       -0.11202
H         -4.43991       -1.49252        1.00546
O         -0.85240        2.17107       -1.54365
H         -0.89297        1.24458       -1.22447
H         -1.79619        2.37438       -1.72168
O          0.28672        2.95666        0.85928
H         -0.23287        2.78887        0.04947
H         -0.35256        3.04141        1.58845
O         -1.27682       -0.17539       -0.30823
H         -0.52659       -0.64238        0.11257
H         -1.77995       -0.86782       -0.77921
O         -3.56641        2.23553       -1.54772
H         -3.92779        1.39631       -1.86968
H         -3.58875        2.13393       -0.58226
O          2.61979        3.82517       -0.42977
H          2.26901        3.61530       -1.31034
H          1.84443        3.78312        0.15295
O         -2.62448       -2.25190       -1.48871
H         -1.87526       -2.68523       -1.94376
H         -2.81199       -2.72506       -0.65622
O          4.11575        1.73192        0.19044
H          5.03628        1.91679        0.37780
H          3.67616        2.59634       -0.01410
O         -3.10868        1.31757        1.10444
H         -3.84965        0.68393        1.21455
H         -2.40615        0.76887        0.70090
O          1.45261        2.69327       -2.75247
H          0.53214        2.53217       -2.43575
H          1.38796        3.05752       -3.63577
C          3.82946       -2.86410        0.55559
H          3.01275       -3.10844        1.23662
S          5.21587       -2.18250        0.77216
