63
HCS+ASW1_dH1
O         -1.86749       -1.20165        3.09626
H         -0.94054       -1.25573        2.81680
H         -2.00930       -0.24027        3.18846
O          2.56425       -1.85863        0.21613
H          3.40268       -2.23777        0.50087
H          2.79806       -1.00604       -0.21881
O         -3.67895       -2.05551       -2.52227
H         -2.98694       -2.52825       -2.01594
H         -4.01359       -2.67009       -3.17606
O          0.88646        1.92766        1.94733
H          0.41946        2.33246        1.18855
H          1.79927        2.24711        1.87890
O          0.72047       -3.74109       -0.69691
H          1.35892       -3.05736       -0.42199
H          1.17198       -4.28879       -1.33845
O         -2.94617        3.17273        1.20928
H         -3.34647        2.41259        0.72121
H         -3.62753        3.83454        1.32836
O         -3.31826       -2.80736        1.60814
H         -2.81153       -2.16571        2.17965
H         -3.67098       -3.46959        2.20379
O          0.56957       -0.76385        1.83046
H          1.34204       -1.21322        1.45220
H          0.80477        0.18090        1.94131
O          3.34298        0.52138       -0.79107
H          3.42360        1.22686       -0.12400
H          2.89204        0.93478       -1.54917
O         -1.69193        1.57294        3.23453
H         -2.17471        2.18274        2.65761
H         -0.75904        1.77527        3.08626
O         -5.00068       -1.26373       -0.07490
H         -4.76073       -1.59445       -0.95246
H         -4.53977       -1.84499        0.55206
O         -0.58697        1.30485       -2.16406
H         -0.64720        0.57769       -1.50713
H         -1.42010        1.19962       -2.67357
O         -0.50088        3.16380       -0.10587
H         -0.67672        2.58899       -0.87541
H         -1.36359        3.37009        0.29604
O         -1.17884       -0.45107       -0.23258
H         -0.58347       -0.56228        0.53883
H         -1.45310       -1.35435       -0.48197
O         -3.11325        0.74601       -2.96948
H         -3.27336       -0.20905       -2.99909
H         -3.45840        1.00423       -2.09907
O          2.01674        4.05402       -0.90465
H          2.04019        3.47072       -1.67942
H          1.09062        4.02506       -0.61137
O         -1.91850       -3.05142       -0.73223
H         -1.01926       -3.43306       -0.71378
H         -2.34681       -3.19718        0.13290
O          3.38057        2.73945        0.93483
H          4.15372        3.18153        1.28668
H          2.95925        3.35192        0.27803
O         -3.52555        1.00154       -0.16988
H         -4.19933        0.30219       -0.02376
H         -2.67737        0.52400       -0.07195
O          1.91988        1.89804       -2.76667
H          0.96788        1.64513       -2.68444
H          2.13135        1.90282       -3.70073
C          6.02111       -1.18459       -0.50884
H          5.23922       -0.49070       -0.83747
S          6.00315       -2.47560        0.37558
