63
HCS+ASW1_dH2
O          0.76146        3.83577       -0.53752
H          1.29428        3.37008        0.12584
H          1.09040        3.46223       -1.37700
O          2.46313        0.73798        3.43273
H          3.10020        1.02936        4.08654
H          2.80637       -0.12124        3.07427
O         -3.71235        0.16610        0.64153
H         -3.19618        0.65470        1.31319
H         -4.53092       -0.13903        1.04259
O          3.56728        0.57291       -0.95261
H          3.00412       -0.14157       -1.31210
H          4.36268        0.12533       -0.62349
O         -0.18610        1.38600        4.02922
H          0.72314        1.11087        3.81090
H         -0.41750        0.92790        4.83692
O          0.77439        0.31539       -3.93314
H         -0.09219        0.41087       -3.46956
H          0.59814        0.25907       -4.87243
O         -1.74842        3.83812        0.23839
H         -0.81366        3.84053       -0.10901
H         -1.99263        4.75791        0.34851
O          2.12389        1.90010        0.91601
H          2.34997        1.63613        1.82232
H          2.75614        1.45546        0.31277
O          3.48817       -1.45528        2.36854
H          4.20087       -1.32652        1.72102
H          2.94260       -2.17679        2.01407
O          2.09378        2.47401       -2.56968
H          1.68306        1.81126       -3.14368
H          2.81387        2.00687       -2.12594
O         -3.24507        2.10175       -1.43628
H         -3.62902        1.49968       -0.78264
H         -2.80905        2.79549       -0.91474
O          0.10292       -2.08903       -0.17994
H          0.06928       -1.16054        0.14085
H         -0.82226       -2.25453       -0.44970
O          1.98704       -1.39100       -2.10542
H          1.23257       -1.67894       -1.55784
H          1.61396       -0.94191       -2.88465
O         -0.12753        0.53902        0.24274
H          0.68143        1.05360        0.45375
H         -0.81487        0.88586        0.84409
O         -2.49913       -1.75161       -1.00046
H         -2.87602       -1.14363       -0.33919
H         -2.18821       -1.14306       -1.69235
O          3.89502       -3.12634       -1.01478
H          3.28472       -3.44625       -0.33165
H          3.32515       -2.64896       -1.63956
O         -1.93670        1.70644        1.95213
H         -1.38596        1.68986        2.75858
H         -1.89731        2.59612        1.55272
O          5.32637       -1.26964        0.21498
H          6.27374       -1.40727        0.22930
H          4.92378       -2.02546       -0.28336
O         -1.27232        0.45136       -2.26814
H         -1.99269        1.11401       -2.18195
H         -0.77693        0.55579       -1.43064
O          1.99568       -3.47551        1.07345
H          1.19742       -3.06319        0.66767
H          1.71026       -4.28538        1.49752
C         -5.47829       -2.83767       -0.48900
H         -4.48816       -2.65180       -0.91928
S         -6.32855       -2.12496        0.61422
