60
Amorphous water cluster 2
O                 -1.24655200    0.59616800    1.40741500
H                 -0.90967100    0.77237200    0.50349700
H                 -0.75580700    1.18358800    2.01226400
O                  0.16434800    4.10814800    0.77939100
H                 -0.75632400    3.94888600    0.49752500
H                  0.73759600    3.72190700    0.10156400
O                  4.62240000    0.18497000    0.19163900
H                  4.33068100   -0.73557400    0.25938200
H                  4.11043100    0.66244500    0.86298300
O                 -3.46078800   -0.95175300    0.62629400
H                 -3.59865400   -1.61568900    1.33015900
H                 -2.80044300   -0.34263200    0.99454800
O                  2.42252100    1.11425900    1.66477800
H                  2.27374400    0.17468400    1.91781100
H                  1.89445000    1.63706800    2.28816800
O                  1.73959400    2.25880300   -0.72103600
H                  2.44142500    2.07044200   -1.36550200
H                  2.01375400    1.79682300    0.10138200
O                 -2.90183000    2.18981400   -2.14379900
H                 -3.13650600    2.69627300   -2.92184500
H                 -3.53941000    1.43564000   -2.08121200
O                  0.29205300    2.46935700    2.83246400
H                  0.11835300    2.86979600    3.68486100
H                  0.26544500    3.19302200    2.15098900
O                 -0.16954400   -1.46534400   -2.20285100
H                 -1.06550700   -1.82258600   -2.31354600
H                 -0.30969400   -0.55677400   -1.86584600
O                 -3.13945500   -2.90082200    2.48490200
H                 -2.17290600   -2.74523600    2.50171100
H                 -3.41358900   -3.07271300    3.38511900
O                 -0.56958100    1.02705600   -1.19799000
H                  0.25904600    1.55628800   -1.15937400
H                 -1.26098400    1.54209500   -1.64944600
O                 -2.81676600   -2.26697400   -1.72270300
H                 -3.00342800   -3.20524500   -1.66203400
H                 -2.91804600   -1.91243300   -0.81518700
O                  2.22321600   -1.49218100    2.29235400
H                  2.56994600   -1.97714300    1.53152600
H                  1.31031800   -1.79871200    2.41765000
O                  0.49630900   -3.18449600   -0.14076700
H                  0.30680900   -2.58285400   -0.88601500
H                  1.45832700   -3.21447900   -0.08742400
O                 -2.44697200    3.28363200    0.40971900
H                 -2.73347500    3.02682700   -0.48097100
H                 -2.42310100    2.45819400    0.90516100
O                  3.80163400    1.06420100   -2.18448900
H                  4.23400900    0.77092000   -1.34462400
H                  4.48998000    1.41636200   -2.74975300
O                 -0.55760200   -2.08598500    2.10091800
H                 -0.75715900   -1.16560600    1.85425500
H                 -0.26849400   -2.52646000    1.27156000
O                  3.39023600   -2.46423900   -0.15735400
H                  4.02559200   -3.16846100   -0.29663200
H                  3.12793200   -2.12780000   -1.05636000
O                 -4.48093500    0.07451300   -1.78676000
H                 -4.43857200   -0.14323000   -0.84193900
H                 -4.11335500   -0.71806300   -2.19939000
O                  2.61726300   -1.48805200   -2.48223100
H                  2.91546800   -0.56967200   -2.58057700
H                  1.65541800   -1.50087300   -2.61358900
