60
Amorphous water cluster 4
O                  5.72325600   -1.69129700    0.15327500
H                  4.93371000   -1.82460500   -0.42228700
H                  6.08244100   -2.55973800    0.33084000
O                  3.48429500   -1.97293900   -1.29205700
H                  2.71488300   -1.95650800   -0.70653200
H                  3.34246400   -1.26633700   -1.94826600
O                  1.93591800    1.96775100   -1.02985000
H                  2.24291600    1.49277900   -0.23340000
H                  1.39324700    2.67682000   -0.65434200
O                 -0.88767000    0.62151400    1.74045500
H                 -0.80640300   -0.34087500    1.61457600
H                 -1.84076300    0.80048100    1.60180200
O                 -0.02549700    3.06171800    0.65140700
H                 -0.23881300    2.12697400    0.82408700
H                  0.34056300    3.35679000    1.49226200
O                 -3.02442400   -0.17074900   -1.36893300
H                 -2.11486600   -0.53094900   -1.32788700
H                 -2.98214500    0.56396600   -2.00469700
O                 -3.48888800    1.03467900    1.01563400
H                 -3.38872000    0.58846600    0.14671500
H                 -3.43238800    1.98102300    0.77184800
O                 -2.72921700    3.35819800   -0.22067400
H                 -1.82355200    3.51559900    0.08554400
H                 -2.62400200    3.05345900   -1.13498500
O                 -0.54844500   -1.36733400   -1.39616200
H                 -0.85539500   -2.28802400   -1.37862100
H                  0.11375500   -1.30919000   -0.67747200
O                 -4.21176400   -2.47220800   -0.35688700
H                 -4.05759600   -1.66719400   -0.87731100
H                 -4.28955400   -2.16170600    0.55796300
O                  3.06728500    0.20440200   -3.01460700
H                  2.99500500    0.99098400   -2.45862200
H                  2.23248500    0.19833100   -3.49366600
O                 -1.24443900   -2.15455600    1.77743500
H                 -1.38459500   -2.75352000    1.02570400
H                 -2.12663800   -2.01270300    2.15182100
O                 -3.95824100   -1.30407400    2.26678100
H                 -3.94927500   -0.35791300    2.01915000
H                 -4.58333700   -1.39922400    2.98619800
O                  0.88919200    1.99269400    3.21298400
H                  0.14124300    1.42498700    2.93797800
H                  0.91434300    1.99773900    4.16969200
O                 -2.26712900    2.09534100   -2.78666500
H                 -2.51169300    2.47174200   -3.63274200
H                 -1.34567600    1.75143400   -2.88145000
O                  2.60048900    0.76800200    1.38342700
H                  2.18259300    1.24396900    2.12125500
H                  3.55596600    0.64984900    1.59467900
O                  5.20178300    0.31724200    1.84797900
H                  5.44916600   -0.45737500    1.29423300
H                  5.84191400    0.99774400    1.63837700
O                  1.34718900   -1.46880200    0.58014600
H                  0.91526200   -1.91689500    1.31408900
H                  1.78700000   -0.66985000    0.94945500
O                 -1.84711700   -3.66311200   -0.55372800
H                 -1.84339700   -4.60735000   -0.71115100
H                 -2.78864900   -3.35986800   -0.54578100
O                  0.12842300    0.88381900   -2.84131900
H                 -0.08413800   -0.01088100   -2.52470300
H                  0.73262600    1.24525800   -2.16349300
