60
Amorphous water cluster 7
O                  0.74072900    0.15077900   -0.03234700
H                  1.58522500    0.63894800   -0.06474200
H                  0.22252200    0.63545200    0.64630100
O                 -2.33619100   -1.61359500   -0.53772400
H                 -2.09292700   -1.59781000   -1.48140900
H                 -1.55742300   -2.00041300   -0.08770400
O                 -3.35384000    2.95932300   -0.80932000
H                 -3.31957300    2.16657000   -0.23895300
H                 -4.21286600    2.95801100   -1.23024300
O                  0.86993200   -3.06835000   -2.15692200
H                  1.73522900   -2.62418100   -2.14543900
H                  0.62965700   -3.11665900   -1.21604400
O                 -1.18237200   -1.68660100   -3.09910300
H                 -0.39059900   -2.23488000   -2.85578500
H                 -1.57014000   -2.08627800   -3.87821000
O                  0.53288600    3.72340800    0.38971400
H                  0.03486400    3.62421500   -0.47182100
H                  0.55877300    4.66212800    0.57916200
O                  3.60338300   -1.56600200    1.09269400
H                  2.89259300   -2.02362900    1.56728800
H                  3.43169900   -1.65078000    0.13857100
O                  2.72756400    2.07048400   -0.05218900
H                  2.09052700    2.77868500    0.15344700
H                  3.22327300    1.86674900    0.75912300
O                  1.46293500   -2.33904900    2.80261400
H                  1.57003300   -2.86991700    3.59191900
H                  1.32439200   -1.40340200    3.09919400
O                 -2.98598100    0.76429200    0.79331100
H                 -3.75797700    0.47478700    1.32145500
H                 -2.72807600   -0.02091000    0.27290500
O                 -4.80031400   -2.44135800    0.31414500
H                 -3.91402900   -2.26292200   -0.05728300
H                 -4.92825800   -3.38871400    0.29821900
O                  1.27204100    0.23896600    3.42624700
H                  0.56144500    0.75134000    3.00588500
H                  2.10494600    0.61712400    3.10288000
O                  2.86227200    0.80646600   -2.55597800
H                  2.96611500    1.40860200   -1.80179100
H                  1.92669700    0.88186800   -2.81016300
O                  0.10016000   -2.41142200    0.41525600
H                  0.41238000   -2.64944600    1.30326300
H                  0.46866900   -1.51331400    0.26868600
O                 -0.82589400    3.33562800   -1.81497600
H                 -1.76709000    3.24654400   -1.57612000
H                 -0.58287200    2.50237200   -2.25404500
O                  0.03864700    0.79405400   -2.59503900
H                 -0.45380800    0.07254400   -3.01578400
H                  0.15433300    0.50003200   -1.66965900
O                 -0.58945100    1.61894900    1.82231100
H                 -1.52086300    1.43129700    1.59328600
H                 -0.35936800    2.49778000    1.47276800
O                  3.27649900   -1.67155400   -1.71554400
H                  4.08022600   -1.99638000   -2.12488000
H                  3.15232700   -0.74478800   -2.05224100
O                  3.76126900    0.84314600    2.17611100
H                  4.58830800    0.95647200    2.64539400
H                  3.78856100   -0.05488400    1.75521900
O                 -5.16910700   -0.34101400    2.01439000
H                 -5.19895200   -1.16975000    1.49919400
H                 -5.18931700   -0.59486600    2.93693400
