60
Amorphous water cluster 8
O                 -0.24316000   -2.11364500    2.25329500
H                 -0.61401500   -2.83603100    1.72077400
H                  0.72032200   -2.12409000    2.14420000
O                 -1.11884000    4.02415600   -0.24198500
H                 -0.59639700    3.34037300    0.22170600
H                 -0.62112500    4.23867900   -1.03143800
O                 -4.08512500   -0.12586100    1.78389000
H                 -3.11443200    0.04617000    1.75363100
H                 -4.35172100   -0.09522100    2.70277000
O                  4.54314300   -1.62843000   -2.17969800
H                  3.68006500   -1.85788100   -1.76829300
H                  4.39341700   -1.60252600   -3.12484600
O                 -3.98615500   -0.56248800   -2.07584700
H                 -4.43515500    0.16865700   -1.57021300
H                 -4.43456000   -0.64684400   -2.91724200
O                 -3.82095500    3.71119100   -0.53539400
H                 -2.85258400    3.79527300   -0.43213600
H                 -4.20069600    4.48273000   -0.11627100
O                 -1.69405100   -3.83945200    0.56888100
H                 -2.51840900   -3.31670900    0.39901400
H                 -1.97837900   -4.73257000    0.76480500
O                  2.57523700   -2.00780900    1.88541600
H                  3.10347800   -2.63243200    2.38391700
H                  3.05996900   -1.14581500    1.92325000
O                  2.23159500   -1.92131400   -0.85653600
H                  1.40736200   -2.39821800   -1.12615300
H                  2.36215500   -2.09776200    0.09217400
O                 -1.32328700   -0.35532600   -1.38800400
H                 -2.20806500   -0.34178400   -1.79530400
H                 -1.47037500   -0.22246800   -0.43051900
O                 -3.87067600   -2.38620500    0.09564500
H                 -4.06631600   -1.70584800    0.75999800
H                 -3.94099000   -1.92512400   -0.75605200
O                 -1.47438600    0.07865200    1.36807500
H                 -0.99101700   -0.69591300    1.74609400
H                 -0.87894300    0.84492500    1.45046900
O                 -0.13981600   -2.87106700   -1.56530500
H                 -0.62239400   -2.02396000   -1.59514900
H                 -0.61848000   -3.39073400   -0.90052700
O                  1.23805300    0.63626900   -1.23000700
H                  0.35005200    0.42527900   -1.57084700
H                  1.65093400   -0.23629200   -1.06389200
O                  3.35147800    2.47148800   -1.01047000
H                  2.59340400    1.93492800   -1.29607600
H                  4.11292400    1.87144200   -1.06319700
O                  4.00167100    0.23032400    1.76749400
H                  4.50392300    0.28456800    0.93777700
H                  3.64005400    1.11951900    1.90589200
O                  5.32262500    0.47611000   -0.74271500
H                  6.27567300    0.57017700   -0.75588100
H                  5.10587800   -0.29134800   -1.32508600
O                  2.96444600    2.85670100    1.58962100
H                  3.15316000    2.86661100    0.61749100
H                  3.29832400    3.67386000    1.96012000
O                  0.38634500    2.04836000    0.95723100
H                  1.16091300    2.39396300    1.43078600
H                  0.75987400    1.51809000    0.22138100
O                 -5.02730900    1.24420100   -0.49059200
H                 -4.84109800    0.88492100    0.39047800
H                 -4.62338100    2.13255600   -0.51157400
