64
H2CO+ASW7_dH4
O          0.13438       -0.67982        0.02302
H          0.67666       -1.46710       -0.17314
H         -0.28390       -0.47049       -0.84087
O         -2.08537        1.85599        1.26395
H         -2.16685        1.28627        2.04992
H         -1.12100        1.98983        1.15629
O         -4.72492       -1.19167       -1.12609
H         -4.22863       -0.34998       -1.15499
H         -5.60289       -0.98178       -0.80949
O          0.78885        0.62978        3.59419
H          1.38817       -0.10543        3.38153
H          0.87681        1.22459        2.82919
O         -1.81666        0.15275        3.49253
H         -0.84430        0.29102        3.63815
H         -2.24492        0.26939        4.34111
O         -1.22164       -3.05703       -2.32391
H         -1.89115       -3.14676       -1.58640
H         -1.48261       -3.68127       -3.00212
O          3.64375       -0.23819        0.25930
H          3.17943        0.59135        0.03848
H          3.25066       -0.58752        1.07940
O          1.16295       -3.07053       -0.90071
H          0.41157       -3.19916       -1.50845
H          1.92944       -2.78148       -1.42392
O          2.55713        2.07576       -0.81631
H          3.31337        2.63362       -1.04769
H          2.21084        1.66635       -1.64204
O         -3.10500        1.01590       -1.20656
H         -3.50535        1.84920       -1.52965
H         -2.75254        1.23356       -0.32204
O         -3.68168        4.04718        0.88263
H         -3.08569        3.31586        1.13812
H         -3.40955        4.81690        1.38062
O          1.65232        0.59610       -2.88086
H          0.70920        0.36719       -2.85991
H          2.13247       -0.23572       -2.75604
O          0.96572       -3.37110        1.88029
H          1.06890       -3.51105        0.92518
H          0.04221       -3.08638        1.99226
O          0.63312        1.73993        1.07471
H          1.27858        2.17948        0.49502
H          0.57920        0.83166        0.70788
O         -2.95686       -3.14823       -0.36565
H         -3.67402       -2.51911       -0.56913
H         -2.57442       -2.84935        0.47707
O         -1.50721       -2.02307        1.74844
H         -1.80464       -1.44966        2.47182
H         -1.01699       -1.42430        1.15064
O         -0.99919       -0.27749       -2.40551
H         -1.81739        0.19851       -2.16250
H         -1.22950       -1.20408       -2.59184
O          2.53417       -1.36719        2.59962
H          3.19647       -1.71308        3.20008
H          1.96274       -2.14164        2.34796
O          3.24164       -1.63211       -1.97905
H          4.06258       -1.90144       -2.39177
H          3.47642       -1.17395       -1.13360
O         -4.20956        3.46085       -1.73168
H         -4.10076        3.84619       -0.84105
H         -3.82720        4.08705       -2.34625
O          5.17645        3.15751       -0.98905
C          5.85109        2.33466       -0.42394
H          6.93454        2.49546       -0.27784
H          5.41829        1.39680       -0.03280
