64
H2CO+ASW7_dH2
O          1.13262        0.07515       -0.10540
H          1.96130        0.24274       -0.59223
H          0.85902        0.96789        0.19113
O         -1.94907       -0.71826        1.24034
H         -1.88836       -1.27221        0.43073
H         -1.14971       -0.95853        1.75219
O         -3.15748        1.93213       -1.74035
H         -2.83397        2.03032       -0.82131
H         -3.84078        2.59260       -1.85674
O          0.29097       -3.67403        0.32973
H          1.15062       -3.54312       -0.10281
H          0.36179       -3.12180        1.12420
O         -1.74140       -2.40835       -0.89418
H         -1.09298       -3.05261       -0.52835
H         -2.61753       -2.81107       -0.97720
O          1.19387        3.11354       -2.07276
H          0.44146        2.64368       -2.53281
H          1.34552        3.92364       -2.56102
O          4.09587       -1.22538        1.25836
H          3.55939       -1.12302        2.05919
H          3.62936       -1.83763        0.66166
O          3.11621        1.08602       -1.74111
H          2.59387        1.88472       -1.93109
H          3.81455        1.32022       -1.10620
O          2.57342       -0.27954        3.46770
H          2.88787       -0.23159        4.37049
H          2.56928        0.64479        3.11191
O         -2.13790        1.98783        0.79994
H         -2.85356        2.24588        1.41280
H         -2.01404        1.02769        0.95254
O         -4.54191       -0.47816        1.93099
H         -3.59369       -0.69108        1.79942
H         -4.93781       -1.23019        2.37156
O          2.69326        2.10992        2.29612
H          1.91779        2.41469        1.79697
H          3.40608        2.00187        1.64673
O          2.55330       -1.46402       -2.80354
H          2.89425       -0.57072       -2.64003
H          1.59313       -1.34260       -2.90317
O          0.53503       -1.45814        2.03503
H          1.10819       -1.18605        2.76938
H          0.89031       -0.96942        1.26295
O         -0.77750        1.78664       -3.18659
H         -1.65262        1.91153       -2.77914
H         -0.59879        0.83285       -3.08839
O         -0.12809       -0.77942       -2.39547
H         -0.81344       -1.42490       -2.15366
H          0.20385       -0.47544       -1.52784
O          0.51560        2.65536        0.57980
H         -0.45058        2.63434        0.71517
H          0.68502        3.04165       -0.29761
O          2.88435       -2.94443       -0.62494
H          3.47688       -3.66578       -0.84333
H          2.78384       -2.41420       -1.45848
O          4.70402        1.23061        0.48663
H          5.63975        1.40090        0.59817
H          4.55104        0.28316        0.74023
O         -4.39615        2.22867        2.33333
H         -4.62418        1.28042        2.30794
H         -4.47908        2.50580        3.24561
O         -4.54052       -2.42235       -0.90446
C         -4.75179       -1.23537       -0.86886
H         -5.77219       -0.83916       -0.73344
H         -3.94801       -0.48832       -0.98641
