64
H2CO+ASW7_dH6
O          0.23000        0.38533        0.13713
H          0.99823        0.97525        0.02364
H         -0.50389        1.00385        0.34420
O         -2.39461       -2.03332        0.06076
H         -1.88845       -2.42272       -0.67572
H         -1.74985       -1.96258        0.79461
O         -3.71409        1.45846       -2.78125
H         -3.76838        1.07383       -1.88421
H         -4.40613        1.04718       -3.29802
O          1.24169       -3.34294        0.14186
H          2.02937       -2.77021        0.09927
H          0.74828       -2.98557        0.89872
O         -0.54836       -3.08241       -1.78041
H          0.18118       -3.24754       -1.12401
H         -0.66654       -3.89391       -2.27499
O         -0.41496        3.56223       -1.42970
H         -0.63701        2.94563       -2.18481
H         -0.53174        4.45181       -1.76556
O          2.80601        0.12621        2.54848
H          2.04285       -0.19824        3.04924
H          2.93860       -0.46305        1.78266
O          1.96287        2.44935       -0.51349
H          1.22619        3.00461       -0.82788
H          2.22745        2.76740        0.36738
O          0.34268       -0.17235        3.96464
H          0.26988       -0.20744        4.91838
H          0.04658        0.73030        3.68402
O         -3.61909        0.46600       -0.22781
H         -4.48230        0.30150        0.20415
H         -3.15153       -0.39102       -0.19089
O         -4.91483       -2.88648        0.68883
H         -3.97718       -2.71275        0.47425
H         -4.95301       -3.73466        1.12840
O         -0.23979        2.26381        3.06168
H         -0.85188        2.32876        2.31028
H          0.61279        2.60218        2.74514
O          2.89780        0.22884       -1.92305
H          2.71265        1.11679       -1.57387
H          2.06663       -0.05410       -2.34312
O         -0.28510       -1.69275        1.76230
H         -0.21511       -1.38868        2.68183
H          0.04028       -0.93182        1.23594
O         -1.05093        1.85529       -3.31290
H         -2.00984        1.68735       -3.25285
H         -0.62259        0.99081       -3.19017
O          0.23187       -0.47744       -2.45402
H         -0.04764       -1.40490       -2.50831
H          0.10929       -0.24539       -1.51148
O         -1.70210        2.22263        0.64684
H         -2.51035        1.74464        0.37549
H         -1.46706        2.84989       -0.05888
O          3.24526       -1.39977        0.23778
H          4.17507       -1.65612        0.13503
H          3.08056       -0.80582       -0.52771
O          2.43013        2.70718        2.17241
H          3.06860        3.21979        2.66905
H          2.65325        1.74932        2.31713
O         -5.95586       -0.37777        0.91498
H         -5.75774       -1.33374        0.92045
H         -6.22584       -0.15159        1.80485
O          5.90750       -1.70345       -0.74012
C          5.93828       -1.08339       -1.77403
H          5.04912       -0.55455       -2.15908
H          6.86885       -1.02744       -2.36788
