64
H2CO+ASW2_dH1
O          0.61233        0.63578        1.68342
H          0.61196        0.17076        0.81894
H          0.42684       -0.03704        2.36236
O          1.55957       -3.08924        1.68362
H          2.24320       -2.43558        1.44628
H          0.98540       -3.19347        0.90982
O         -4.15570       -2.60279       -0.01675
H         -4.43692       -1.68413       -0.13725
H         -3.59929       -2.59393        0.77755
O          1.74228        3.02057        0.64728
H          1.35319        3.74114        1.18110
H          1.47642        2.21005        1.10918
O         -2.12141       -1.87446        1.77378
H         -2.55632       -0.99239        1.82246
H         -1.51492       -1.90807        2.52959
O         -0.49882       -2.74527       -0.24562
H         -1.05092       -3.09229       -0.96557
H         -1.13129       -2.41489        0.42915
O          3.44443       -0.21620       -1.23561
H          4.18015       -0.74583       -1.57818
H          3.62550        0.73784       -1.39380
O          0.15604       -1.60635        3.35740
H          0.34425       -1.74200        4.28645
H          0.70419       -2.25472        2.84273
O         -0.74496        1.14792       -2.39243
H         -0.17893        1.92062       -2.55123
H         -0.19525        0.55454       -1.83987
O          0.07251        4.68885        1.98908
H         -0.63665        4.01323        1.99298
H          0.05336        5.12159        2.84199
O          0.76025       -0.45914       -0.80411
H          0.37978       -1.36139       -0.72479
H          1.69055       -0.52611       -1.09077
O          0.92966        3.36264       -1.98569
H          0.55652        4.23674       -2.11047
H          1.05058        3.25926       -1.01985
O         -3.49347        0.43497        1.82149
H         -3.90868        0.51361        0.95208
H         -2.94560        1.22896        1.93423
O         -2.59457        2.45008       -0.81070
H         -1.97255        1.97457       -1.39498
H         -3.40017        1.92121       -0.82708
O          3.29009       -0.93964        1.39389
H          3.37165       -0.59636        0.48206
H          2.77009       -0.27436        1.85510
O         -2.56449       -3.18258       -2.07481
H         -3.23296       -3.07418       -1.35423
H         -2.82774       -3.94339       -2.59366
O         -1.53398        2.49988        1.68225
H         -0.82046        1.83707        1.66652
H         -1.86250        2.56156        0.75810
O         -4.54285        0.18517       -0.84991
H         -5.42121        0.37148       -1.18579
H         -3.97976       -0.06262       -1.63270
O          3.62649        2.46099       -1.39882
H          3.26601        2.74932       -0.54599
H          2.98405        2.81001       -2.02871
O         -2.96155       -0.48695       -2.84715
H         -2.67671       -1.41095       -2.76567
H         -2.16322        0.06172       -2.91881
O          5.53483       -2.08908       -1.45220
C          5.76025       -2.50153       -0.34246
H          6.52039       -3.28486       -0.17455
H          5.22327       -2.11874        0.54276
