64
H2CO+ASW2_dH4
O         -0.35064        1.38286        1.50358
H         -0.02673        1.35099        0.57749
H          0.40513        1.65768        2.05630
O          2.59881        3.67410        0.65793
H          1.70975        4.00048        0.42125
H          2.85976        3.04283       -0.02817
O          4.44408       -1.97188        0.03527
H          3.72818       -2.61188        0.15155
H          4.28898       -1.29318        0.71050
O         -3.07120        1.10145        0.74611
H         -3.50240        0.51518        1.39303
H         -2.20936        1.31539        1.13500
O          3.11612       -0.03528        1.57338
H          2.53600       -0.77252        1.86886
H          2.95051        0.69112        2.19480
O          2.95402        1.26367       -0.82879
H          3.42949        0.74347       -1.49705
H          3.01210        0.73779       -0.00169
O         -1.13283        3.52320       -2.07319
H         -1.08499        4.05138       -2.87056
H         -2.06912        3.20980       -1.98620
O          2.01370        2.22305        2.76903
H          2.12114        2.66890        3.60981
H          2.31107        2.85181        2.05767
O         -0.60960       -1.01531       -2.12763
H         -1.56363       -0.85314       -2.24910
H         -0.26433       -0.15962       -1.80057
O         -3.68856       -0.97237        2.48834
H         -2.72794       -1.15359        2.57868
H         -4.06103       -0.97471        3.37026
O          0.30996        1.35112       -1.13781
H          1.29236        1.39421       -1.15988
H         -0.05434        2.13379       -1.58898
O         -3.22033       -0.26435       -1.70740
H         -3.89925       -0.94524       -1.56885
H         -3.06224        0.09209       -0.81334
O          1.67889       -2.19402        2.30081
H          1.67747       -2.78756        1.53768
H          0.74963       -1.98056        2.48145
O         -0.83084       -2.74736       -0.02259
H         -0.73452       -2.15342       -0.79655
H         -0.02169       -3.27357       -0.01218
O         -0.08465        4.28970        0.41876
H         -0.49966        4.19322       -0.45335
H         -0.46578        3.58256        0.94946
O          4.06713       -0.81377       -2.33713
H          4.33594       -1.27896       -1.50766
H          4.81049       -0.85511       -2.93969
O         -1.01121       -1.25921        2.22366
H         -0.74734       -0.34986        1.98831
H         -0.99408       -1.76609        1.38162
O          1.98846       -3.63306       -0.17195
H          2.17997       -4.56242       -0.30876
H          1.91549       -3.21643       -1.07428
O         -3.57064        2.54488       -1.67000
H         -3.63070        2.35083       -0.72302
H         -3.64110        1.66364       -2.06671
O          1.75635       -2.43410       -2.50201
H          2.47131       -1.79342       -2.64431
H          0.91376       -1.96046       -2.60316
O         -4.92333       -2.16631       -0.54784
C         -4.31058       -2.71684        0.33394
H         -3.20883       -2.71140        0.37109
H         -4.83544       -3.26903        1.13127
