64
H2CO+ASW2_dH3
O          1.29020       -0.44017       -0.67984
H          0.85700        0.43359       -0.57759
H          0.95624       -0.83830       -1.50896
O          0.08801        1.14417       -3.95355
H          0.93530        1.47668       -3.60209
H         -0.60964        1.57191       -3.43764
O         -4.66360       -0.22649       -0.58125
H         -4.42035       -0.64309        0.25773
H         -4.05162       -0.59525       -1.23650
O          3.42001       -0.33022        1.07540
H          3.65722       -1.27344        1.17205
H          2.75674       -0.35610        0.36292
O         -2.24588       -0.99139       -1.80145
H         -2.11524       -1.55953       -1.00919
H         -1.59293       -1.30574       -2.44451
O         -1.80993        1.72054       -1.86342
H         -2.60198        2.15409       -1.50577
H         -1.98701        0.75924       -1.77958
O          2.57131        3.52868       -0.72661
H          2.77289        4.45645       -0.85121
H          3.16390        3.19334       -0.00903
O          0.20909       -1.34043       -3.06861
H          0.76619       -1.94968       -3.55608
H          0.18122       -0.47742       -3.55751
O         -0.23864        1.63168        2.38881
H          0.63339        1.64587        2.81668
H         -0.05535        1.80231        1.44331
O          3.29084       -3.07899        1.08250
H          2.34974       -3.00718        1.31588
H          3.27689       -3.40757        0.17769
O          0.28833        2.03894       -0.25096
H         -0.47590        2.08502       -0.86792
H          0.94444        2.71831       -0.48454
O          2.42209        1.13852        3.16586
H          2.60819        0.78693        4.03763
H          2.70992        0.45532        2.52274
O         -2.07291       -2.56733        0.37490
H         -2.60664       -2.13852        1.05862
H         -1.16714       -2.60305        0.72927
O         -0.80655       -0.97149        3.14552
H         -0.66640       -0.04317        2.87763
H         -1.75154       -1.12110        3.03097
O          2.53201        1.55800       -2.73412
H          2.65714        2.32048       -2.14715
H          2.55543        0.79519       -2.14774
O         -4.06658        2.36178       -0.33854
H         -4.42166        1.44656       -0.45171
H         -4.79630        2.96737       -0.47385
O          0.57908       -2.32718        1.24717
H          0.79737       -1.59926        0.63394
H          0.20754       -1.89371        2.04506
O         -3.63663       -0.90533        2.10057
H         -4.32727       -1.10165        2.73579
H         -3.44296        0.06781        2.17380
O          4.05475        2.41721        1.18679
H          4.19044        1.47840        0.98445
H          3.59930        2.38384        2.03869
O         -3.04804        1.66166        2.21044
H         -3.29244        2.11065        1.38532
H         -2.11518        1.85692        2.39140
O          1.75792       -3.61521       -1.52033
C          0.70271       -3.99345       -1.07991
H          0.64288       -4.72987       -0.26103
H         -0.25697       -3.61765       -1.47666
