64
H2CO+ASW2_dH6
O         -1.82190        0.02278        1.37603
H         -1.61554        0.31585        0.46307
H         -1.77986        0.81428        1.94527
O         -2.63242        3.69733        0.54312
H         -3.29453        3.03360        0.27316
H         -1.91392        3.65729       -0.10499
O          3.27705        3.00566        0.20039
H          3.59702        2.09967        0.32872
H          2.56515        3.12114        0.84792
O         -2.77860       -2.52964        0.68902
H         -2.52737       -3.12082        1.42565
H         -2.57711       -1.63755        1.01628
O          0.87644        2.57983        1.62998
H          1.27239        1.74134        1.96082
H          0.12181        2.75011        2.21423
O         -0.23947        2.96996       -0.83076
H          0.46790        3.19704       -1.45761
H          0.21719        2.79831        0.02221
O         -3.97454        0.26405       -2.26444
H         -4.42104        0.52484       -3.07042
H         -4.10072       -0.71138       -2.15972
O         -1.69835        2.50488        2.69434
H         -2.10853        2.77192        3.51749
H         -2.09684        3.05692        1.96981
O          0.32354       -1.28845       -2.10194
H         -0.22525       -2.08326       -2.19598
H         -0.30456       -0.59226       -1.81960
O         -1.43677       -3.87584        2.62782
H         -0.73291       -3.19462        2.63193
H         -1.59528       -4.12120        3.53886
O         -1.41452        0.62399       -1.24915
H         -1.02576        1.52890       -1.23450
H         -2.26040        0.64726       -1.72958
O         -1.48327       -3.38294       -1.59364
H         -1.18164       -4.28715       -1.49416
H         -1.78293       -3.09765       -0.70483
O          2.14744        0.36942        2.47119
H          2.75183        0.17321        1.74143
H          1.58361       -0.41237        2.58071
O          1.86564       -2.07257        0.04598
H          1.33848       -1.82414       -0.73938
H          2.49582       -1.34301        0.14413
O         -4.30601        1.51889        0.22910
H         -4.36033        1.11180       -0.65001
H         -3.83158        0.87642        0.76696
O          2.17085        3.13643       -2.21422
H          2.66983        3.17349       -1.35961
H          2.55560        3.79443       -2.79407
O          0.23919       -1.75875        2.20994
H         -0.43613       -1.12235        1.91375
H          0.76644       -1.97743        1.41149
O          3.69752        0.14650        0.06872
H          4.54048       -0.33232        0.01566
H          3.36332        0.23586       -0.85760
O         -4.15212       -2.34892       -1.77696
H         -4.03399       -2.45860       -0.82061
H         -3.38809       -2.81927       -2.13626
O          2.62763        0.35084       -2.37141
H          2.35659        1.26790       -2.53482
H          1.85750       -0.21764       -2.52038
O          5.71407       -1.82401       -0.12050
C          5.19344       -2.89829       -0.28637
H          4.09670       -3.01061       -0.35012
H          5.80470       -3.81369       -0.37791
