62
CS+ASW1_dH1
O         -0.75813       -1.91324        2.88224
H          0.04794       -1.63800        2.41664
H         -1.12514       -1.06377        3.19258
O          2.88032       -0.90986       -0.78849
H          3.80667       -1.12247       -0.60805
H          2.85664        0.02830       -1.09376
O         -3.54558       -2.46587       -2.36939
H         -2.65460       -2.77375       -2.10311
H         -3.84834       -3.05793       -3.05849
O          0.74613        2.02417        1.91073
H          0.03641        2.37846        1.33829
H          1.51487        2.58948        1.73561
O          1.43380       -3.02309       -1.80488
H          1.92925       -2.24753       -1.47326
H          1.77494       -3.19956       -2.68123
O         -3.34112        2.16919        2.12258
H         -3.63807        1.40314        1.57372
H         -4.12185        2.57970        2.49445
O         -2.04428       -3.64269        1.38147
H         -1.60473       -2.96672        1.96944
H         -2.06439       -4.45675        1.88595
O          1.08478       -0.59870        1.28592
H          1.82070       -0.74853        0.66584
H          1.10182        0.34630        1.54260
O          2.79883        1.69330       -1.41501
H          2.88724        2.30619       -0.66776
H          2.10538        2.07314       -1.97822
O         -1.28598        0.74438        3.53615
H         -2.02654        1.25647        3.17973
H         -0.49509        1.22489        3.25767
O         -4.42739       -2.46407        0.38514
H         -4.31637       -2.57329       -0.57027
H         -3.68974       -2.95342        0.78479
O         -1.44157        1.57585       -1.91483
H         -1.16661        0.77554       -1.41666
H         -2.31313        1.30953       -2.27851
O         -1.33992        3.07713        0.41556
H         -1.53440        2.59155       -0.40916
H         -2.10917        2.95762        0.99983
O         -1.11332       -0.53273       -0.30028
H         -0.34355       -0.56003        0.30898
H         -1.17676       -1.43062       -0.67768
O         -3.86041        0.41384       -2.34796
H         -3.76579       -0.53099       -2.53957
H         -4.04568        0.43107       -1.39465
O          0.65294        4.73695       -0.63202
H          0.64857        4.28621       -1.49179
H         -0.14901        4.41381       -0.18942
O         -1.21438       -3.13664       -1.18283
H         -0.26742       -3.22558       -1.41227
H         -1.37057       -3.52189       -0.30001
O          2.67695        3.63631        0.67231
H          3.36162        4.24019        0.96034
H          1.98338        4.17466        0.21281
O         -3.66743        0.13636        0.47343
H         -4.08496       -0.74234        0.60258
H         -2.72656       -0.08207        0.31378
O          0.65837        2.92547       -2.81597
H         -0.16023        2.40888       -2.62364
H          0.66127        3.10888       -3.75572
C          5.76985       -1.69096       -0.02210
S          7.15637       -2.08822        0.46684
