62
CS+ASW1_dH2
O          0.50360        3.04428        2.25165
H          1.00758        2.25229        2.49511
H          0.98364        3.37175        1.46735
O          2.07699       -1.97723        3.10237
H          2.57170       -2.25834        3.87333
H          2.57332       -2.32021        2.31430
O         -3.59962       -0.38481       -0.38583
H         -3.20276       -0.52249        0.49388
H         -4.49657       -0.74338       -0.35723
O          3.73152        1.04288        0.19308
H          3.31236        0.79948       -0.65721
H          4.52999        0.49477        0.24536
O         -0.69372       -2.00228        3.45444
H          0.26694       -2.00743        3.28910
H         -0.95756       -2.92121        3.49954
O          1.40802        2.99408       -2.55144
H          0.48817        2.71862       -2.31494
H          1.34828        3.61502       -3.27743
O         -2.06374        2.46596        2.31486
H         -1.10243        2.71982        2.24735
H         -2.43890        3.03458        2.98823
O          1.92960        0.65865        2.18321
H          2.06294       -0.18497        2.64412
H          2.67462        0.77065        1.55618
O          3.51021       -2.76638        1.02511
H          4.27185       -2.20819        0.79677
H          3.11004       -3.01867        0.17604
O          2.25293        3.53387        0.13904
H          2.00548        3.48058       -0.79572
H          2.95896        2.88288        0.24656
O         -3.10229        2.42969       -0.33801
H         -3.44828        1.52479       -0.39467
H         -2.83318        2.54002        0.58814
O          0.59897       -1.37359       -1.75797
H          0.41458       -0.95271       -0.89015
H         -0.26412       -1.28947       -2.22083
O          2.58566        0.49209       -2.26572
H          1.81141       -0.10201       -2.22275
H          2.25878        1.36125       -2.55826
O         -0.01552        0.17640        0.33396
H          0.67036        0.39485        0.99937
H         -0.82431       -0.01541        0.84767
O         -1.84184       -0.59165       -2.62740
H         -2.49893       -0.68132       -1.91821
H         -1.57514        0.33955       -2.56380
O          4.53814       -1.50018       -2.40132
H          3.89386       -2.21317       -2.26503
H          3.99248       -0.71941       -2.59246
O         -2.18689       -0.25394        1.95258
H         -1.74619       -0.84398        2.59318
H         -2.21860        0.65022        2.31660
O          5.55503       -1.08334        0.00478
H          6.50346       -1.18909        0.08121
H          5.31334       -1.25247       -0.94166
O         -0.81565        1.89167       -1.67428
H         -1.63139        2.28340       -1.29165
H         -0.45106        1.36709       -0.93323
O          2.46146       -3.24244       -1.55056
H          1.67881       -2.65210       -1.67413
H          2.22072       -4.10430       -1.89138
C         -6.55467       -1.30482       -0.51211
S         -8.03558       -1.56265       -0.75915
