64
H2CO+ASW1_dH1
O          1.85219        0.95907        3.11009
H          0.94150        1.15483        2.83797
H          1.84897       -0.01395        3.18621
O         -2.41268        2.31307        0.28995
H         -3.21627        2.80382        0.52314
H         -2.74624        1.51421       -0.17366
O          3.71018        1.61885       -2.53569
H          3.10332        2.18133       -2.01124
H          4.11409        2.18557       -3.19354
O         -1.36111       -1.69923        1.94725
H         -0.96548       -2.15396        1.17663
H         -2.31276       -1.87047        1.87595
O         -0.34663        3.90123       -0.66115
H         -1.07884        3.32189       -0.37307
H         -0.66562        4.79967       -0.58380
O          2.23571       -3.48911        1.13609
H          2.73646       -2.78796        0.65215
H          2.81554       -4.24403        1.23731
O          3.51257        2.34175        1.61862
H          2.91983        1.77476        2.18691
H          3.97414        2.92671        2.22061
O         -0.63152        0.91972        1.87861
H         -1.32693        1.48958        1.50779
H         -1.00972        0.02209        1.97800
O         -3.61207        0.11011       -0.76493
H         -3.79169       -0.57956       -0.10349
H         -3.24627       -0.36286       -1.53245
O          1.25482       -1.75989        3.20591
H          1.62979       -2.42315        2.60821
H          0.30008       -1.81013        3.06703
O          4.92597        0.59935       -0.12129
H          4.72882        0.97777       -0.99039
H          4.56361        1.23096        0.52131
O          0.14060       -1.23384       -2.16960
H          0.31330       -0.53329       -1.50388
H          0.97367       -1.24259       -2.69003
O         -0.19655       -3.09595       -0.14431
H          0.05423       -2.53767       -0.90542
H          0.63013       -3.43487        0.24265
O          1.01311        0.38325       -0.22056
H          0.45363        0.57040        0.56378
H          1.41391        1.23896       -0.46615
O          2.70955       -1.05054       -3.01042
H          3.01382       -0.13074       -3.03062
H          3.02081       -1.37002       -2.14756
O         -2.82393       -3.58980       -0.93357
H         -2.76925       -2.99882       -1.70129
H         -1.90074       -3.69908       -0.64980
O          2.15080        2.84114       -0.70683
H          1.32301        3.36009       -0.67434
H          2.59934        2.89825        0.15795
O         -3.95610       -2.12293        0.95033
H         -4.76670       -2.47502        1.31858
H         -3.63282       -2.77174        0.27323
O          3.11338       -1.40789       -0.22266
H          3.88953       -0.82346       -0.08018
H          2.35071       -0.80684       -0.10184
O         -2.42665       -1.45873       -2.77490
H         -1.44943       -1.34069       -2.68562
H         -2.62991       -1.41647       -3.70974
O         -5.05222        3.34292        0.49492
C         -5.74244        2.58814       -0.14422
H         -5.32515        1.67543       -0.60449
H         -6.81923        2.79157       -0.28441
