64
H2CO+ASW1_dH6
O         -2.20485        0.03785       -3.19573
H         -1.53899        0.69567       -2.94082
H         -1.70113       -0.79811       -3.17325
O          0.60830        3.71256       -0.58448
H          1.00012        4.47856       -1.00649
H          1.33393        3.28787       -0.05533
O         -4.44474        0.13693        2.33159
H         -4.18444        0.88497        1.75576
H         -5.12887        0.46241        2.91737
O          1.83647       -0.47477       -1.77938
H          1.70149       -0.99330       -0.96205
H          2.72567       -0.09265       -1.68704
O         -2.03233        4.04849        0.24000
H         -1.09978        3.91127       -0.01100
H         -2.03093        4.74002        0.90143
O         -0.34732       -3.77804       -0.77036
H         -1.16740       -3.40440       -0.36498
H         -0.44346       -4.73010       -0.79673
O         -4.41705        0.50322       -1.86203
H         -3.58803        0.27151       -2.36701
H         -5.07628        0.71911       -2.52278
O         -0.12871        1.38118       -1.93391
H          0.16347        2.25674       -1.63307
H          0.65881        0.79661       -1.94961
O          2.60526        2.52794        0.67082
H          3.19596        2.00090        0.10325
H          2.49715        2.00600        1.48207
O         -0.30046       -1.98330       -3.01207
H         -0.31022       -2.68807       -2.34818
H          0.53699       -1.52158       -2.87210
O         -4.83114       -1.57242        0.02827
H         -4.90158       -1.07432        0.85523
H         -4.80616       -0.90070       -0.67284
O          0.08542       -0.50047        2.29013
H         -0.39256       -0.05633        1.55611
H         -0.64658       -0.89857        2.80925
O          1.46403       -2.07555        0.47159
H          0.91398       -1.66394        1.16594
H          0.95294       -2.82387        0.11537
O         -1.38646        0.25185        0.18867
H         -0.95020        0.63353       -0.60361
H         -2.18055        0.79983        0.33665
O         -2.26072       -1.60111        3.09598
H         -2.98928       -0.96761        3.01557
H         -2.31344       -2.10828        2.26930
O          3.90901       -1.07134        1.33863
H          3.50827       -0.51048        2.02302
H          3.18992       -1.66585        1.06384
O         -3.62547        1.83450        0.39600
H         -3.17085        2.69534        0.31102
H         -3.99929        1.58064       -0.46940
O          4.14488        0.65954       -0.73249
H          5.07444        0.69768       -0.99781
H          4.12625        0.01457        0.00899
O         -2.26074       -2.35640        0.35772
H         -3.21533       -2.27134        0.14479
H         -1.90956       -1.45960        0.18401
O          2.35647        0.73701        2.86930
H          1.46993        0.30909        2.79114
H          2.45481        1.01226        3.78130
O          6.94055        0.04278       -0.80979
C          7.05481       -0.81186        0.03204
H          6.19722       -1.14406        0.64384
H          8.03149       -1.29388        0.21913
