64
H2CO+ASW1_dH7
O          2.95995       -2.75836        0.30044
H          2.18535       -2.76530        0.88406
H          2.56530       -2.91196       -0.57918
O         -0.96182       -1.29672        3.56772
H         -1.23893       -1.81462        4.32487
H         -1.78971       -1.08655        3.05844
O          3.04261        3.22541        0.37214
H          2.93127        2.58924        1.10895
H          3.44793        4.00998        0.74285
O         -1.26735       -2.87751       -0.64752
H         -1.38699       -2.07204       -1.18980
H         -2.16330       -3.12955       -0.37213
O          1.12408        0.46857        4.09703
H          0.37343       -0.11793        3.88578
H          0.78804        1.11679        4.71572
O          0.76097       -1.15882       -3.78391
H          1.33529       -0.47496       -3.36363
H          0.96020       -1.17092       -4.72015
O          4.48285       -0.70542        0.90895
H          3.91889       -1.47880        0.62684
H          5.31197       -1.08023        1.20885
O          0.43813       -2.32816        1.38505
H         -0.02498       -2.12906        2.21510
H         -0.23660       -2.61536        0.73399
O         -3.15190       -0.90183        2.15949
H         -3.43769       -1.63992        1.59682
H         -3.31161       -0.09736        1.63421
O          1.32070       -3.25073       -1.89435
H          1.16928       -2.63056       -2.62236
H          0.44444       -3.41759       -1.52232
O          4.41231        1.20591       -1.19274
H          4.12940        2.00213       -0.72098
H          4.56207        0.53959       -0.50196
O         -1.02830        1.51357       -0.68842
H         -0.37631        0.98668       -0.17626
H         -0.47585        2.24933       -1.03015
O         -1.55251       -0.67423       -2.30531
H         -1.32946        0.17257       -1.87355
H         -0.87739       -0.82257       -2.99000
O          1.00485        0.08077        0.27140
H          0.83705       -0.81064        0.64657
H          1.62152        0.51434        0.89123
O          0.92886        3.15934       -1.59078
H          1.57286        3.34300       -0.88969
H          1.32774        2.41171       -2.06742
O         -4.23789       -0.79650       -1.47513
H         -4.15553       -0.01222       -0.90585
H         -3.43532       -0.78371       -2.02028
O          2.81044        1.13130        2.05814
H          2.31833        0.90216        2.87128
H          3.49424        0.45543        1.88976
O         -3.93192       -2.81532        0.20398
H         -4.66145       -3.43352        0.25041
H         -4.17093       -2.12456       -0.46636
O          1.98935        0.61100       -2.24728
H          2.94405        0.74938       -2.06605
H          1.64322        0.30121       -1.38576
O         -3.50109        1.20684        0.36062
H         -2.60365        1.40300        0.01942
H         -3.89891        2.07389        0.52152
O         -3.92259        4.04258        0.35675
C         -3.10619        4.46664       -0.41892
H         -2.98435        5.55087       -0.58741
H         -2.44348        3.79507       -0.99205
