64
H2CO+ASW1_dH5
O          2.20610       -1.83196       -1.32817
H          1.51773       -2.18051       -0.73886
H          1.69041       -1.52617       -2.10079
O         -1.25515       -2.60026        2.64861
H         -1.45705       -3.45562        3.03059
H         -2.12764       -2.19002        2.41290
O          2.36691        3.19156        2.04261
H          2.34173        2.25606        2.33160
H          2.81223        3.68291        2.73350
O         -2.04851       -1.66264       -1.68713
H         -2.21622       -0.69817       -1.68294
H         -2.91223       -2.06855       -1.51203
O          0.91865       -1.31271        3.84711
H          0.13484       -1.71485        3.43027
H          0.68193       -1.15414        4.76068
O         -0.38406        1.55981       -3.57544
H          0.23918        1.92825       -2.90199
H         -0.30596        2.09377       -4.36618
O          3.79795       -0.28088        0.21563
H          3.17906       -0.75886       -0.38356
H          4.62488       -0.78407        0.15482
O         -0.11606       -2.20421        0.13294
H         -0.47377       -2.52056        0.97831
H         -0.86510       -2.13240       -0.49584
O         -3.58348       -1.60996        1.88186
H         -3.94180       -1.94836        1.04480
H         -3.78227       -0.65858        1.88375
O          0.32937       -1.19252       -3.26044
H          0.11621       -0.27727       -3.49721
H         -0.49938       -1.56244       -2.92703
O          3.52871        2.43026       -0.50077
H          3.30966        2.83418        0.35098
H          3.77790        1.51391       -0.29029
O         -1.84900        2.07113        0.66044
H         -1.13344        1.40498        0.74924
H         -1.35825        2.91964        0.72018
O         -2.49831        1.06195       -1.83676
H         -2.23850        1.56082       -1.03811
H         -1.90324        1.34637       -2.55280
O          0.28952        0.46816        0.49769
H          0.17519       -0.49239        0.34023
H          0.98127        0.54179        1.18426
O          0.02943        4.02301        0.56271
H          0.74916        3.85826        1.19026
H          0.37204        3.66328       -0.27179
O         -5.07197        0.37300       -0.98635
H         -4.93455        0.74188       -0.09918
H         -4.32673        0.71665       -1.50593
O          2.31421        0.50808        2.34179
H          1.95156       -0.16575        2.94737
H          2.97022        0.09144        1.74627
O         -4.60968       -2.21458       -0.69621
H         -5.33181       -2.79952       -0.92638
H         -4.91417       -1.28622       -0.86412
O          1.00912        2.27600       -1.45686
H          1.97678        2.36998       -1.31119
H          0.75689        1.55209       -0.84914
O         -4.14867        1.13826        1.58830
H         -3.30614        1.59333        1.34699
H         -4.58331        1.67935        2.24807
O          5.82286       -2.17213       -0.43912
C          5.29476       -2.92631       -1.21927
H          4.23333       -2.81494       -1.50150
H          5.86726       -3.75648       -1.67199
