64
H2CO+ASW1_dH3
O         -1.81538       -1.74266       -2.84429
H         -1.09586       -1.10298       -2.95838
H         -1.36853       -2.50142       -2.42318
O          1.38753        2.48039       -2.44962
H          1.80373        2.99879       -3.13983
H          2.08848        2.29858       -1.77818
O         -3.74636        1.32315        1.87418
H         -3.46301        1.62954        0.98731
H         -4.35678        1.97926        2.21226
O          2.24493       -1.84142       -1.41078
H          2.10763       -1.86975       -0.44334
H          3.17007       -1.57350       -1.52659
O         -1.20961        3.46093       -1.74611
H         -0.36040        3.10359       -2.05014
H         -0.97766        4.02994       -0.99825
O         -0.14672       -4.00327        1.12021
H         -0.90619       -3.39333        1.28433
H         -0.32718       -4.82462        1.57768
O         -3.95566       -0.51849       -1.93627
H         -3.16677       -1.03332       -2.26177
H         -4.62706       -0.60106       -2.61442
O          0.42773       -0.13170       -2.46996
H          0.79464        0.74348       -2.67407
H          1.17085       -0.71322       -2.20551
O          3.29599        1.80718       -0.71449
H          3.82741        1.03511       -0.97207
H          3.25937        1.78553        0.25439
O         -0.05765       -3.57992       -1.71644
H         -0.09144       -3.86100       -0.79048
H          0.81769       -3.18617       -1.82609
O         -4.37264       -1.27328        0.75925
H         -4.37733       -0.41963        1.21566
H         -4.36530       -1.05975       -0.18840
O          0.69499        0.31045        2.18715
H          0.23472        0.34090        1.31884
H         -0.05473        0.28311        2.82334
O          1.85155       -2.09668        1.33172
H          1.38652       -1.35915        1.76666
H          1.26564       -2.87252        1.39541
O         -0.74923        0.10241       -0.04447
H         -0.33446       -0.01416       -0.92732
H         -1.52793        0.67510       -0.20091
O         -1.69247       -0.00841        3.39330
H         -2.37223        0.56823        3.01181
H         -1.82578       -0.85059        2.92790
O          4.44098       -1.05672        1.46602
H          4.12077       -0.21002        1.81382
H          3.67458       -1.64840        1.54399
O         -2.89749        1.66080       -0.65905
H         -2.40471        2.34180       -1.16796
H         -3.35775        1.05943       -1.27410
O          4.73719       -0.59553       -1.12229
H          5.61650       -0.70753       -1.48435
H          4.77931       -0.82004       -0.15863
O         -1.85403       -2.00869        1.38462
H         -2.80994       -1.94141        1.16470
H         -1.43400       -1.36001        0.78652
O          3.10708        1.39439        2.08348
H          2.19690        1.05254        2.25437
H          3.35401        1.94660        2.82606
O         -0.21177        4.33306        0.78059
C          0.43569        3.35817        1.06151
H          0.90586        3.24275        2.05251
H          0.58465        2.53226        0.34342
