64
H2CO+ASW3_dH2
O          2.12648       -0.15906       -2.30641
H          1.17180       -0.25214       -2.47153
H          2.24728        0.79831       -2.19270
O         -4.79917        0.55220       -1.12617
H         -5.67275        0.59980       -1.51533
H         -4.55280       -0.40754       -1.08785
O          2.31672       -2.43571       -0.67071
H          2.53754       -2.26503        0.25661
H          2.21745       -1.56044       -1.08598
O         -0.59768       -0.33108       -1.99786
H         -1.26273        0.38526       -1.99872
H         -1.06725       -1.17041       -2.15379
O         -1.78276       -2.83359       -2.13628
H         -1.16549       -3.25931       -1.47746
H         -1.82810       -3.41171       -2.89835
O         -2.32917        1.76270       -1.54410
H         -3.25761        1.49750       -1.65220
H         -2.21888        1.85172       -0.57590
O          4.58481       -0.23128        0.76654
H          4.29961       -0.95511        1.33112
H          4.76077       -0.61753       -0.11391
O          1.88748        3.55824        2.34111
H          1.90601        3.28116        3.25709
H          2.24767        2.81017        1.81576
O         -4.14941        0.74275        1.65597
H         -4.52690        0.81049        0.76495
H         -3.34117        1.28387        1.62373
O         -0.18262        3.62500       -1.61941
H         -0.29647        3.95270       -0.71284
H         -0.97045        3.09641       -1.81908
O          2.24727        2.59899       -1.84934
H          2.78972        3.20224       -2.35819
H          1.33251        2.98088       -1.82661
O         -0.34408        4.37600        1.12604
H          0.48735        4.15650        1.61045
H         -0.59531        5.26312        1.38492
O          2.58607        1.55574        0.67712
H          2.62333        1.98039       -0.19895
H          3.36322        0.95138        0.73200
O         -3.42640       -1.79007        1.97784
H         -3.71127       -0.84016        1.95150
H         -3.96488       -2.21787        2.64470
O         -1.75035        1.98496        1.13086
H         -1.36718        2.86607        1.27651
H         -1.00002        1.35613        1.07712
O          4.74170       -1.35088       -1.80228
H          4.04818       -0.87429       -2.27848
H          4.30917       -2.19019       -1.60717
O         -4.05826       -1.96667       -0.78463
H         -3.30964       -2.32527       -1.29195
H         -3.83358       -2.08701        0.15210
O          0.21131        0.16645        0.61380
H          0.02948       -0.07080       -0.31759
H          1.09858        0.58050        0.63947
O         -0.61892       -2.12382        1.91259
H         -0.30750       -1.27068        1.55687
H         -1.57505       -2.01760        2.05436
O         -0.11816       -3.70336       -0.31546
H          0.76124       -3.34510       -0.54176
H         -0.36383       -3.22874        0.50250
O          2.67326       -2.18214        2.13730
C          1.87065       -2.89713        2.68972
H          1.59749       -2.73819        3.74419
H          1.39155       -3.73956        2.16992
