64
H2CO+ASW3_dH1
O          2.57912       -1.24910       -1.95495
H          1.60292       -1.21997       -1.93073
H          2.84939       -0.32096       -2.06389
O         -3.88195        0.89627       -1.04728
H         -4.75835        0.89747       -1.45887
H         -3.77006       -0.01712       -0.70202
O          2.59263       -2.71212        0.51003
H          3.37479       -2.45399        1.00774
H          2.59808       -2.13482       -0.26930
O         -0.02813       -0.89778       -1.30226
H         -0.54845       -0.10518       -1.54467
H         -0.63816       -1.65091       -1.19197
O         -1.52078       -3.10024       -0.60970
H         -0.92549       -3.31789        0.17113
H         -1.61688       -3.90518       -1.11935
O         -1.27580        1.52900       -1.60188
H         -2.23897        1.41571       -1.69516
H         -1.16442        1.87425       -0.69354
O          5.21168       -1.44221        0.68603
H          6.09155       -1.49654        1.05927
H          5.24366       -1.87488       -0.19703
O          3.12749        3.14374        1.95269
H          2.86054        2.95086        2.85223
H          3.41307        2.29070        1.56708
O         -3.33793        1.88171        1.55327
H         -3.65036        1.72244        0.64680
H         -2.42884        2.21059        1.45096
O          1.11688        2.94987       -2.09701
H          1.10103        3.49201       -1.29228
H          0.24744        2.52199       -2.15913
O          3.26810        1.44041       -2.01264
H          3.91185        1.79913       -2.62437
H          2.45032        2.00124       -2.09224
O          1.27695        4.31938        0.39389
H          2.00141        3.96203        0.95752
H          1.31785        5.27427        0.45392
O          3.58821        0.79656        0.65180
H          3.59066        1.04619       -0.29143
H          4.22493        0.06291        0.73913
O         -3.23699       -0.52206        2.66276
H         -3.29703        0.41423        2.34043
H         -3.79541       -0.58566        3.43817
O         -0.68869        2.41621        0.93576
H         -0.14491        3.21607        0.86225
H         -0.06679        1.67650        1.10600
O          4.93088       -2.63267       -1.73519
H          4.06874       -2.26159       -2.00134
H          4.78014       -3.57573       -1.65260
O         -3.71561       -1.55726        0.11256
H         -2.99448       -2.16330       -0.13607
H         -3.59076       -1.36469        1.05821
O          0.88460        0.21160        1.08238
H          0.61647       -0.29258        0.28859
H          1.84985        0.32153        1.01014
O         -0.51472       -1.34445        2.99724
H          0.00628       -0.71536        2.47461
H         -1.43430       -1.04304        2.93582
O          0.07141       -3.49645        1.39671
H          0.98807       -3.28423        1.14593
H         -0.16470       -2.83295        2.07683
O         -6.51463        0.13365       -1.85151
C         -6.65937       -0.95214       -1.34755
H         -7.61659       -1.49561       -1.44878
H         -5.84967       -1.43760       -0.77436
